data_crystal
 
_cell_length_a    25.80160
_cell_length_b    25.80160
_cell_length_c    25.80160
_cell_angle_alpha 90.00000
_cell_angle_beta  90.00000
_cell_angle_gamma 90.00000
 
_symmetry_space_group_name_Hall 'P 1'
_symmetry_space_group_name_H-M  'P 1'
 
loop_
_symmetry_equiv_pos_as_xyz
 'x,y,z' 
 
loop_
_atom_site_label
_atom_site_type_symbol
_atom_site_fract_x
_atom_site_fract_y
_atom_site_fract_z
_atom_site_charge
C          C       0.47216   0.02412   0.95819   0.0138020000
C          C       0.41742   0.02846   0.96050   0.0723570000
C          C       0.41864   0.02934   0.05829   0.0725640000
C          C       0.47328   0.02288   0.05935   0.0160170000
C          C       0.99739   0.01816   0.10926  -0.1820500000
C          C       0.46865   0.01984   0.15641   0.0364870000
C          C       0.41477   0.02879   0.15274  -0.1172160000
C          C       0.39018   0.03325   0.10475  -0.1520580000
C          C       0.38779   0.03043   0.91467  -0.1542280000
C          C       0.41164   0.02908   0.86609  -0.1344610000
C          C       0.46614   0.02650   0.86082   0.0382850000
C          C       0.99541   0.02310   0.90766  -0.1515860000
C          C       0.03540   0.07186   0.00871   0.0207280000
C          C       0.09037   0.07034   0.00637   0.0735830000
C          C       0.08926   0.47282   0.00387   0.0718180000
C          C       0.03426   0.47215   0.00702   0.0186090000
C          C       0.11748   0.42602   0.00169  -0.1475950000
C          C       0.09198   0.37829   0.00375  -0.1297700000
C          C       0.03754   0.37608   0.00802   0.0465690000
C          C       0.00908   0.42294   0.00890  -0.1766020000
C          C       0.01103   0.12147   0.01051  -0.1923530000
C          C       0.04007   0.16788   0.01077   0.0421520000
C          C       0.09458   0.16488   0.00871  -0.1306600000
C          C       0.11939   0.11673   0.00644  -0.1500960000
H          H       0.11678   0.19781   0.00819   0.1176710000
H          H       0.15903   0.11583   0.00453   0.1187960000
H          H       0.15711   0.42631  -0.00069   0.1175370000
H          H       0.11376   0.34508   0.00286   0.1166120000
H          H       0.46955   0.42127   0.01176   0.1234760000
H          H       0.47147   0.12392   0.01155   0.1197150000
H          H       0.03641   0.01150   0.11116   0.1187760000
H          H       0.39215   0.03069   0.18534   0.1194210000
H          H       0.35079   0.03823   0.10405   0.1195920000
H          H       0.03486   0.02046   0.90504   0.1190320000
H          H       0.34818   0.03270   0.91628   0.1180850000
H          H       0.38778   0.02869   0.83448   0.1111810000
C          C       0.00366   0.02238   0.00840   0.0398350000
C          C       0.11970   0.02132   0.00310  -0.2477880000
H          H       0.14231   0.02200   0.96721   0.1216300000
H          H       0.14669   0.02020   0.03583   0.1202040000
C          C       0.38848   0.03206   0.00973  -0.2444290000
H          H       0.36016   0.50046   0.01045   0.1214520000
H          H       0.36734   0.06886   0.00958   0.1181580000
C          C       0.52506   0.47233   0.45952   0.0140640000
C          C       0.53090   0.41772   0.46295   0.0706120000
C          C       0.52958   0.42084   0.56077   0.0718610000
C          C       0.52556   0.47570   0.56055   0.0138520000
C          C       0.52415   0.00130   0.60987  -0.1680230000
C          C       0.52743   0.47400   0.65778   0.0401780000
C          C       0.52919   0.41935   0.65539  -0.1345390000
C          C       0.53086   0.39329   0.60795  -0.1548800000
C          C       0.53434   0.38724   0.41771  -0.1537560000
C          C       0.52968   0.40975   0.36869  -0.1349050000
C          C       0.52126   0.46350   0.36288   0.0436170000
C          C       0.52076   0.99436   0.40861  -0.1652290000
C          C       0.47417   0.03562   0.50826   0.0195970000
C          C       0.47487   0.09058   0.50450   0.0730030000
C          C       0.07242   0.09141   0.50343   0.0716180000
C          C       0.07390   0.03652   0.50737   0.0195120000
C          C       0.11885   0.12030   0.50158  -0.1500270000
C          C       0.16698   0.09552   0.50449  -0.1332030000
C          C       0.16990   0.04117   0.50918   0.0462710000
C          C       0.12349   0.01215   0.50983  -0.1770370000
C          C       0.42497   0.01048   0.51056  -0.1834170000
C          C       0.37811   0.03895   0.50977   0.0425500000
C          C       0.38037   0.09342   0.50589  -0.1284480000
C          C       0.42809   0.11888   0.50325  -0.1511910000
H          H       0.34716   0.11520   0.50467   0.1166540000
H          H       0.42838   0.15847   0.50034   0.1183460000
H          H       0.11798   0.15988   0.49863   0.1175920000
H          H       0.19992   0.11769   0.50356   0.1147120000
H          H       0.12586   0.47269   0.51299   0.1212640000
H          H       0.42327   0.47092   0.51291   0.1209990000
H          H       0.02140   0.04083   0.61085   0.1222150000
H          H       0.52837   0.39740   0.68842   0.1245470000
H          H       0.53276   0.35363   0.60818   0.1198520000
H          H       0.01473   0.03336   0.40492   0.1222930000
H          H       0.53884   0.34786   0.42011   0.1179870000
H          H       0.53094   0.38582   0.33702   0.1142800000
C          C       0.52435   0.00493   0.50899   0.0434730000
C          C       0.52338   0.12083   0.50132  -0.2454410000
H          H       0.52283   0.14267   0.46495   0.1198010000
H          H       0.52350   0.14851   0.53348   0.1187990000
C          C       0.53324   0.38973   0.51285  -0.2449610000
H          H       0.06988   0.36837   0.51410   0.1198180000
H          H       0.50145   0.36162   0.51325   0.1184310000
C          C       0.02256   0.49743   0.70812   0.1205620000
N          N       0.48032   0.02772   0.71652  -0.2502990000
C          C       0.46370   0.04262   0.76419  -0.0088720000
C          C       0.98814   0.52305   0.80944   0.1671880000
N          N       0.03182   0.49479   0.80082  -0.2801060000
C          C       0.05101   0.48208   0.75311   0.0926970000
H          H       0.43125   0.06515   0.76615   0.1121720000
C          C       0.09713   0.45490   0.75206   0.2238020000
O          O       0.09827   0.41437   0.77658  -0.3219860000
H          H       0.11676   0.45407   0.71907   0.0566140000
C          C       0.98842   0.00786   0.20713   0.1316650000
N          N       0.46081   0.47151   0.23359  -0.2678660000
C          C       0.46912   0.45748   0.28333   0.0031320000
C          C       0.00884   0.98187   0.31194   0.1708300000
N          N       0.03691   0.01845   0.28599  -0.2847330000
C          C       0.02903   0.03272   0.23523   0.0948820000
H          H       0.44613   0.42943   0.29929   0.1125840000
C          C       0.05878   0.07280   0.21567   0.2229160000
O          O       0.10501   0.07292   0.22595  -0.3201680000
H          H       0.04971   0.08666   0.18102   0.0626200000
C          C       0.01725   0.21784   0.01120   0.1346400000
N          N       0.02500   0.24549   0.05540  -0.2760150000
C          C       0.02132   0.29779   0.05848   0.0102220000
C          C       0.01491   0.32638   0.01231   0.1636040000
N          N       0.50911   0.29862   0.96789  -0.2687270000
C          C       0.50685   0.24586   0.96488   0.0895730000
H          H       0.03222   0.31560   0.09216   0.1178080000
C          C       0.50330   0.22304   0.91637   0.2175020000
O          O       0.48614   0.24812   0.88000  -0.3214530000
H          H       0.49491   0.18553   0.91479   0.0618500000
C          C       0.32817   0.01616   0.51145   0.1325440000
N          N       0.30095   0.02629   0.55551  -0.2736130000
C          C       0.24857   0.02510   0.55903   0.0091390000
C          C       0.21959   0.01854   0.51319   0.1647150000
N          N       0.24659   0.51017   0.46879  -0.2681910000
C          C       0.29921   0.50582   0.46565   0.0888370000
H          H       0.23150   0.03724   0.59267   0.1159840000
C          C       0.32158   0.49990   0.41715   0.2162800000
O          O       0.29558   0.48282   0.38139  -0.3189010000
H          H       0.35869   0.48990   0.41567   0.0603860000
C          C       0.47216   0.52411   0.95819   0.0137720000
C          C       0.41742   0.52846   0.96050   0.0724530000
C          C       0.41864   0.52934   0.05829   0.0726080000
C          C       0.47328   0.52287   0.05935   0.0159010000
C          C       0.99739   0.51816   0.10926  -0.1818970000
C          C       0.46865   0.51984   0.15641   0.0364540000
C          C       0.41477   0.52879   0.15274  -0.1172100000
C          C       0.39018   0.53325   0.10475  -0.1521440000
C          C       0.38779   0.53043   0.91467  -0.1542570000
C          C       0.41164   0.52908   0.86609  -0.1344570000
C          C       0.46614   0.52650   0.86082   0.0382470000
C          C       0.99541   0.52310   0.90766  -0.1515620000
C          C       0.03540   0.57186   0.00871   0.0207040000
C          C       0.09037   0.57034   0.00637   0.0737730000
C          C       0.08926   0.97282   0.00387   0.0719570000
C          C       0.03426   0.97214   0.00702   0.0185390000
C          C       0.11748   0.92602   0.00169  -0.1476360000
C          C       0.09198   0.87829   0.00375  -0.1297890000
C          C       0.03754   0.87608   0.00802   0.0465820000
C          C       0.00908   0.92294   0.00890  -0.1766320000
C          C       0.01103   0.62147   0.01051  -0.1922010000
C          C       0.04007   0.66788   0.01077   0.0421440000
C          C       0.09458   0.66488   0.00871  -0.1306460000
C          C       0.11939   0.61673   0.00644  -0.1501420000
H          H       0.11678   0.69781   0.00819   0.1176740000
H          H       0.15903   0.61583   0.00453   0.1188060000
H          H       0.15711   0.92631  -0.00069   0.1175330000
H          H       0.11376   0.84508   0.00286   0.1166170000
H          H       0.46955   0.92127   0.01176   0.1234910000
H          H       0.47147   0.62391   0.01155   0.1196140000
H          H       0.03641   0.51150   0.11116   0.1187500000
H          H       0.39215   0.53069   0.18534   0.1194200000
H          H       0.35079   0.53824   0.10405   0.1196780000
H          H       0.03486   0.52046   0.90504   0.1190300000
H          H       0.34818   0.53270   0.91628   0.1180890000
H          H       0.38778   0.52869   0.83448   0.1111830000
C          C       0.00366   0.52238   0.00840   0.0398000000
C          C       0.11970   0.52131   0.00310  -0.2478920000
H          H       0.14231   0.52200   0.96721   0.1216030000
H          H       0.14669   0.52020   0.03583   0.1202260000
C          C       0.38848   0.53206   0.00973  -0.2444360000
H          H       0.36016   0.00046   0.01045   0.1214480000
H          H       0.36734   0.56886   0.00958   0.1181590000
C          C       0.52506   0.97233   0.45952   0.0140700000
C          C       0.53090   0.91772   0.46295   0.0706340000
C          C       0.52958   0.92084   0.56077   0.0719550000
C          C       0.52556   0.97570   0.56055   0.0138210000
C          C       0.52415   0.50130   0.60987  -0.1681430000
C          C       0.52743   0.97400   0.65778   0.0399830000
C          C       0.52919   0.91936   0.65539  -0.1344360000
C          C       0.53086   0.89329   0.60795  -0.1552270000
C          C       0.53434   0.88724   0.41771  -0.1537580000
C          C       0.52968   0.90975   0.36869  -0.1349070000
C          C       0.52126   0.96350   0.36288   0.0436160000
C          C       0.52076   0.49436   0.40861  -0.1652300000
C          C       0.47417   0.53562   0.50826   0.0195980000
C          C       0.47487   0.59058   0.50450   0.0729820000
C          C       0.07242   0.59141   0.50343   0.0716270000
C          C       0.07390   0.53652   0.50737   0.0195090000
C          C       0.11885   0.62030   0.50158  -0.1500280000
C          C       0.16698   0.59552   0.50449  -0.1331920000
C          C       0.16990   0.54117   0.50918   0.0462840000
C          C       0.12349   0.51215   0.50983  -0.1770420000
C          C       0.42497   0.51048   0.51056  -0.1834020000
C          C       0.37811   0.53895   0.50977   0.0424310000
C          C       0.38037   0.59342   0.50589  -0.1285430000
C          C       0.42809   0.61888   0.50325  -0.1510360000
H          H       0.34716   0.61520   0.50467   0.1166710000
H          H       0.42838   0.65847   0.50034   0.1183260000
H          H       0.11798   0.65988   0.49863   0.1175920000
H          H       0.19992   0.61769   0.50356   0.1147110000
H          H       0.12586   0.97269   0.51299   0.1212660000
H          H       0.42327   0.97093   0.51291   0.1209860000
H          H       0.02140   0.54083   0.61085   0.1222630000
H          H       0.52837   0.89740   0.68842   0.1247050000
H          H       0.53276   0.85363   0.60818   0.1199260000
H          H       0.01473   0.53336   0.40492   0.1222950000
H          H       0.53884   0.84786   0.42011   0.1179860000
H          H       0.53094   0.88582   0.33702   0.1142790000
C          C       0.52435   0.50493   0.50899   0.0434760000
C          C       0.52338   0.62083   0.50132  -0.2454400000
H          H       0.52283   0.64267   0.46495   0.1198010000
H          H       0.52350   0.64851   0.53348   0.1187990000
C          C       0.53324   0.88973   0.51285  -0.2449950000
H          H       0.06988   0.86837   0.51410   0.1198160000
H          H       0.50145   0.86162   0.51325   0.1184350000
C          C       0.02256   0.99743   0.70812   0.1206290000
N          N       0.48032   0.52772   0.71652  -0.2502860000
C          C       0.46370   0.54262   0.76419  -0.0089300000
C          C       0.98814   0.02305   0.80944   0.1671960000
N          N       0.03182   0.99480   0.80082  -0.2801070000
C          C       0.05101   0.98208   0.75311   0.0927650000
H          H       0.43125   0.56515   0.76615   0.1121870000
C          C       0.09713   0.95490   0.75206   0.2237830000
O          O       0.09827   0.91437   0.77658  -0.3219860000
H          H       0.11676   0.95407   0.71907   0.0566180000
C          C       0.98842   0.50786   0.20713   0.1317040000
N          N       0.46081   0.97151   0.23359  -0.2678660000
C          C       0.46912   0.95748   0.28333   0.0031310000
C          C       0.00884   0.48187   0.31194   0.1708320000
N          N       0.03691   0.51845   0.28599  -0.2847330000
C          C       0.02903   0.53272   0.23523   0.0948650000
H          H       0.44613   0.92943   0.29929   0.1125840000
C          C       0.05878   0.57280   0.21567   0.2229160000
O          O       0.10501   0.57292   0.22595  -0.3201670000
H          H       0.04971   0.58666   0.18102   0.0626200000
C          C       0.01725   0.71784   0.01120   0.1346340000
N          N       0.02500   0.74549   0.05540  -0.2760150000
C          C       0.02132   0.79779   0.05848   0.0102080000
C          C       0.01491   0.82638   0.01231   0.1635970000
N          N       0.50911   0.79862   0.96789  -0.2687290000
C          C       0.50685   0.74586   0.96488   0.0895800000
H          H       0.03222   0.81560   0.09216   0.1178170000
C          C       0.50330   0.72304   0.91637   0.2174560000
O          O       0.48614   0.74812   0.88000  -0.3214230000
H          H       0.49491   0.68553   0.91479   0.0618550000
C          C       0.32817   0.51616   0.51145   0.1327240000
N          N       0.30095   0.52629   0.55551  -0.2737250000
C          C       0.24857   0.52510   0.55903   0.0091690000
C          C       0.21959   0.51854   0.51319   0.1647200000
N          N       0.24659   0.01017   0.46879  -0.2682100000
C          C       0.29921   0.00582   0.46565   0.0889460000
H          H       0.23150   0.53724   0.59267   0.1159890000
C          C       0.32158  -0.00010   0.41715   0.2162580000
O          O       0.29558   0.98282   0.38139  -0.3189090000
H          H       0.35869   0.98990   0.41567   0.0603830000
C          C       0.97216   0.02412   0.95819   0.0139950000
C          C       0.91741   0.02846   0.96050   0.0721950000
C          C       0.91864   0.02934   0.05829   0.0725260000
C          C       0.97328   0.02288   0.05935   0.0161240000
C          C       0.49739   0.01816   0.10926  -0.1820050000
C          C       0.96865   0.01984   0.15641   0.0365560000
C          C       0.91477   0.02879   0.15274  -0.1174710000
C          C       0.89017   0.03325   0.10475  -0.1518540000
C          C       0.88779   0.03043   0.91467  -0.1538880000
C          C       0.91164   0.02908   0.86609  -0.1344160000
C          C       0.96614   0.02650   0.86082   0.0382740000
C          C       0.49541   0.02310   0.90766  -0.1514820000
C          C       0.53540   0.07186   0.00871   0.0207120000
C          C       0.59037   0.07034   0.00637   0.0736840000
C          C       0.58926   0.47282   0.00387   0.0718150000
C          C       0.53426   0.47215   0.00702   0.0187070000
C          C       0.61748   0.42602   0.00169  -0.1475790000
C          C       0.59198   0.37829   0.00375  -0.1297630000
C          C       0.53754   0.37608   0.00802   0.0465190000
C          C       0.50908   0.42294   0.00890  -0.1766270000
C          C       0.51103   0.12147   0.01051  -0.1923720000
C          C       0.54007   0.16788   0.01077   0.0422760000
C          C       0.59458   0.16488   0.00871  -0.1308300000
C          C       0.61938   0.11673   0.00644  -0.1500680000
H          H       0.61678   0.19781   0.00819   0.1177080000
H          H       0.65903   0.11583   0.00453   0.1188590000
H          H       0.65711   0.42631  -0.00069   0.1175480000
H          H       0.61376   0.34508   0.00286   0.1166150000
H          H       0.96955   0.42127   0.01176   0.1234730000
H          H       0.97147   0.12392   0.01155   0.1197100000
H          H       0.53641   0.01150   0.11116   0.1187720000
H          H       0.89216   0.03069   0.18534   0.1194760000
H          H       0.85079   0.03823   0.10405   0.1195750000
H          H       0.53486   0.02046   0.90504   0.1190230000
H          H       0.84817   0.03270   0.91628   0.1177560000
H          H       0.88778   0.02869   0.83448   0.1111570000
C          C       0.50365   0.02238   0.00840   0.0399010000
C          C       0.61970   0.02132   0.00310  -0.2479760000
H          H       0.64231   0.02200   0.96721   0.1216710000
H          H       0.64668   0.02020   0.03583   0.1202890000
C          C       0.88848   0.03206   0.00973  -0.2443550000
H          H       0.86016   0.50046   0.01045   0.1214720000
H          H       0.86735   0.06886   0.00958   0.1181230000
C          C       0.02506   0.47233   0.45952   0.0141100000
C          C       0.03090   0.41772   0.46295   0.0707170000
C          C       0.02959   0.42084   0.56077   0.0718390000
C          C       0.02556   0.47570   0.56055   0.0139960000
C          C       0.02415   0.00130   0.60987  -0.1680160000
C          C       0.02743   0.47400   0.65778   0.0401120000
C          C       0.02919   0.41935   0.65539  -0.1344220000
C          C       0.03086   0.39329   0.60795  -0.1551190000
C          C       0.03433   0.38724   0.41771  -0.1539580000
C          C       0.02968   0.40975   0.36869  -0.1350280000
C          C       0.02126   0.46350   0.36288   0.0436500000
C          C       0.02076   0.99436   0.40861  -0.1652170000
C          C       0.97416   0.03562   0.50826   0.0197140000
C          C       0.97487   0.09058   0.50450   0.0731820000
C          C       0.57242   0.09141   0.50343   0.0716300000
C          C       0.57390   0.03652   0.50737   0.0194180000
C          C       0.61885   0.12030   0.50158  -0.1500230000
C          C       0.66698   0.09552   0.50449  -0.1332060000
C          C       0.66990   0.04117   0.50918   0.0462960000
C          C       0.62349   0.01215   0.50983  -0.1770520000
C          C       0.92497   0.01048   0.51056  -0.1835510000
C          C       0.87811   0.03895   0.50977   0.0425450000
C          C       0.88036   0.09342   0.50589  -0.1285450000
C          C       0.92809   0.11888   0.50325  -0.1511180000
H          H       0.84716   0.11520   0.50467   0.1166910000
H          H       0.92838   0.15847   0.50034   0.1182980000
H          H       0.61798   0.15988   0.49863   0.1175890000
H          H       0.69992   0.11769   0.50356   0.1147120000
H          H       0.62586   0.47269   0.51299   0.1212660000
H          H       0.92327   0.47092   0.51291   0.1210430000
H          H       0.52140   0.04083   0.61085   0.1222100000
H          H       0.02837   0.39740   0.68842   0.1245380000
H          H       0.03276   0.35363   0.60818   0.1199170000
H          H       0.51473   0.03336   0.40492   0.1222940000
H          H       0.03884   0.34786   0.42011   0.1181790000
H          H       0.03094   0.38582   0.33702   0.1143080000
C          C       0.02435   0.00493   0.50899   0.0430870000
C          C       0.02338   0.12083   0.50132  -0.2454410000
H          H       0.02283   0.14267   0.46495   0.1197990000
H          H       0.02350   0.14851   0.53348   0.1187960000
C          C       0.03324   0.38973   0.51285  -0.2449500000
H          H       0.56988   0.36837   0.51410   0.1198180000
H          H       0.00145   0.36162   0.51325   0.1184610000
C          C       0.52256   0.49743   0.70812   0.1203120000
N          N       0.98032   0.02772   0.71652  -0.2503550000
C          C       0.96370   0.04262   0.76419  -0.0089250000
C          C       0.48814   0.52305   0.80944   0.1672250000
N          N       0.53182   0.49479   0.80082  -0.2803160000
C          C       0.55100   0.48208   0.75311   0.0931640000
H          H       0.93125   0.06515   0.76615   0.1121830000
C          C       0.59713   0.45490   0.75206   0.2237410000
O          O       0.59827   0.41437   0.77658  -0.3219880000
H          H       0.61676   0.45407   0.71907   0.0566160000
C          C       0.48842   0.00786   0.20713   0.1317000000
N          N       0.96081   0.47151   0.23359  -0.2678550000
C          C       0.96912   0.45748   0.28333   0.0031350000
C          C       0.50884   0.98187   0.31194   0.1708310000
N          N       0.53691   0.01845   0.28599  -0.2847290000
C          C       0.52903   0.03272   0.23523   0.0948680000
H          H       0.94613   0.42943   0.29929   0.1125840000
C          C       0.55878   0.07280   0.21567   0.2229160000
O          O       0.60501   0.07292   0.22595  -0.3201690000
H          H       0.54971   0.08666   0.18102   0.0626190000
C          C       0.51725   0.21784   0.01120   0.1343150000
N          N       0.52499   0.24549   0.05540  -0.2757570000
C          C       0.52132   0.29779   0.05848   0.0100600000
C          C       0.51491   0.32638   0.01231   0.1638580000
N          N       0.00910   0.29862   0.96789  -0.2685710000
C          C       0.00685   0.24586   0.96488   0.0895080000
H          H       0.53222   0.31560   0.09216   0.1178490000
C          C       0.00329   0.22304   0.91637   0.2177020000
O          O       0.98614   0.24812   0.88000  -0.3216410000
H          H       0.99491   0.18553   0.91479   0.0618700000
C          C       0.82817   0.01616   0.51145   0.1325850000
N          N       0.80095   0.02629   0.55551  -0.2736180000
C          C       0.74857   0.02510   0.55903   0.0091440000
C          C       0.71959   0.01854   0.51319   0.1646960000
N          N       0.74659   0.51017   0.46879  -0.2681980000
C          C       0.79921   0.50582   0.46565   0.0888100000
H          H       0.73150   0.03724   0.59267   0.1159850000
C          C       0.82157   0.49990   0.41715   0.2167950000
O          O       0.79558   0.48282   0.38139  -0.3191240000
H          H       0.85870   0.48990   0.41567   0.0600950000
C          C       0.97216   0.52411   0.95819   0.0139140000
C          C       0.91741   0.52846   0.96050   0.0723190000
C          C       0.91864   0.52934   0.05829   0.0726080000
C          C       0.97328   0.52287   0.05935   0.0159370000
C          C       0.49739   0.51816   0.10926  -0.1818560000
C          C       0.96865   0.51984   0.15641   0.0365030000
C          C       0.91477   0.52879   0.15274  -0.1174630000
C          C       0.89017   0.53325   0.10475  -0.1519450000
C          C       0.88779   0.53043   0.91467  -0.1538910000
C          C       0.91164   0.52908   0.86609  -0.1344680000
C          C       0.96614   0.52650   0.86082   0.0382730000
C          C       0.49541   0.52310   0.90766  -0.1514590000
C          C       0.53540   0.57186   0.00871   0.0207410000
C          C       0.59037   0.57034   0.00637   0.0739190000
C          C       0.58926   0.97282   0.00387   0.0719990000
C          C       0.53426   0.97214   0.00702   0.0185530000
C          C       0.61748   0.92602   0.00169  -0.1476590000
C          C       0.59198   0.87829   0.00375  -0.1297830000
C          C       0.53754   0.87608   0.00802   0.0465350000
C          C       0.50908   0.92294   0.00890  -0.1766310000
C          C       0.51103   0.62147   0.01051  -0.1922040000
C          C       0.54007   0.66788   0.01077   0.0422710000
C          C       0.59458   0.66488   0.00871  -0.1308180000
C          C       0.61938   0.61673   0.00644  -0.1501420000
H          H       0.61678   0.69781   0.00819   0.1177110000
H          H       0.65903   0.61583   0.00453   0.1188690000
H          H       0.65711   0.92631  -0.00069   0.1175430000
H          H       0.61376   0.84508   0.00286   0.1166170000
H          H       0.96955   0.92127   0.01176   0.1235020000
H          H       0.97147   0.62391   0.01155   0.1196130000
H          H       0.53641   0.51150   0.11116   0.1187450000
H          H       0.89216   0.53069   0.18534   0.1194740000
H          H       0.85079   0.53824   0.10405   0.1196650000
H          H       0.53486   0.52046   0.90504   0.1190200000
H          H       0.84817   0.53270   0.91628   0.1177600000
H          H       0.88778   0.52869   0.83448   0.1111880000
C          C       0.50365   0.52238   0.00840   0.0396250000
C          C       0.61970   0.52131   0.00310  -0.2480940000
H          H       0.64231   0.52200   0.96721   0.1216470000
H          H       0.64668   0.52020   0.03583   0.1203060000
C          C       0.88848   0.53206   0.00973  -0.2444770000
H          H       0.86016   0.00046   0.01045   0.1214520000
H          H       0.86735   0.56886   0.00958   0.1181520000
C          C       0.02506   0.97233   0.45952   0.0141130000
C          C       0.03090   0.91772   0.46295   0.0707150000
C          C       0.02959   0.92084   0.56077   0.0719300000
C          C       0.02556   0.97570   0.56055   0.0139720000
C          C       0.02415   0.50130   0.60987  -0.1681620000
C          C       0.02743   0.97400   0.65778   0.0399120000
C          C       0.02919   0.91936   0.65539  -0.1342830000
C          C       0.03086   0.89329   0.60795  -0.1554680000
C          C       0.03433   0.88724   0.41771  -0.1539590000
C          C       0.02968   0.90975   0.36869  -0.1350280000
C          C       0.02126   0.96350   0.36288   0.0436470000
C          C       0.02076   0.49436   0.40861  -0.1652190000
C          C       0.97416   0.53562   0.50826   0.0197120000
C          C       0.97487   0.59058   0.50450   0.0731770000
C          C       0.57242   0.59141   0.50343   0.0716300000
C          C       0.57390   0.53652   0.50737   0.0194130000
C          C       0.61885   0.62030   0.50158  -0.1500160000
C          C       0.66698   0.59552   0.50449  -0.1331920000
C          C       0.66990   0.54117   0.50918   0.0462900000
C          C       0.62349   0.51215   0.50983  -0.1770480000
C          C       0.92497   0.51048   0.51056  -0.1835450000
C          C       0.87811   0.53895   0.50977   0.0424440000
C          C       0.88036   0.59342   0.50589  -0.1285270000
C          C       0.92809   0.61888   0.50325  -0.1511070000
H          H       0.84716   0.61520   0.50467   0.1166970000
H          H       0.92838   0.65847   0.50034   0.1182980000
H          H       0.61798   0.65988   0.49863   0.1175880000
H          H       0.69992   0.61769   0.50356   0.1147110000
H          H       0.62586   0.97269   0.51299   0.1212650000
H          H       0.92327   0.97093   0.51291   0.1210310000
H          H       0.52140   0.54083   0.61085   0.1222340000
H          H       0.02837   0.89740   0.68842   0.1246700000
H          H       0.03276   0.85363   0.60818   0.1199910000
H          H       0.51473   0.53336   0.40492   0.1222940000
H          H       0.03884   0.84786   0.42011   0.1181760000
H          H       0.03094   0.88582   0.33702   0.1143080000
C          C       0.02435   0.50493   0.50899   0.0430890000
C          C       0.02338   0.62083   0.50132  -0.2454480000
H          H       0.02283   0.64267   0.46495   0.1198050000
H          H       0.02350   0.64851   0.53348   0.1188040000
C          C       0.03324   0.88973   0.51285  -0.2449480000
H          H       0.56988   0.86837   0.51410   0.1198230000
H          H       0.00145   0.86162   0.51325   0.1184630000
C          C       0.52256   0.99743   0.70812   0.1203720000
N          N       0.98032   0.52772   0.71652  -0.2503210000
C          C       0.96370   0.54262   0.76419  -0.0088920000
C          C       0.48814   0.02305   0.80944   0.1671450000
N          N       0.53182   0.99480   0.80082  -0.2803270000
C          C       0.55100   0.98208   0.75311   0.0932210000
H          H       0.93125   0.56515   0.76615   0.1121830000
C          C       0.59713   0.95490   0.75206   0.2237490000
O          O       0.59827   0.91437   0.77658  -0.3220050000
H          H       0.61676   0.95407   0.71907   0.0566150000
C          C       0.48842   0.50786   0.20713   0.1317000000
N          N       0.96081   0.97151   0.23359  -0.2678640000
C          C       0.96912   0.95748   0.28333   0.0031450000
C          C       0.50884   0.48187   0.31194   0.1708270000
N          N       0.53691   0.51845   0.28599  -0.2847170000
C          C       0.52903   0.53272   0.23523   0.0948580000
H          H       0.94613   0.92943   0.29929   0.1125830000
C          C       0.55878   0.57280   0.21567   0.2229230000
O          O       0.60501   0.57292   0.22595  -0.3201700000
H          H       0.54971   0.58666   0.18102   0.0626170000
C          C       0.51725   0.71784   0.01120   0.1343170000
N          N       0.52499   0.74549   0.05540  -0.2757610000
C          C       0.52132   0.79779   0.05848   0.0100620000
C          C       0.51491   0.82638   0.01231   0.1638510000
N          N       0.00910   0.79862   0.96789  -0.2685780000
C          C       0.00685   0.74586   0.96488   0.0895410000
H          H       0.53222   0.81560   0.09216   0.1178480000
C          C       0.00329   0.72304   0.91637   0.2177010000
O          O       0.98614   0.74812   0.88000  -0.3216500000
H          H       0.99491   0.68553   0.91479   0.0618600000
C          C       0.82817   0.51616   0.51145   0.1327560000
N          N       0.80095   0.52629   0.55551  -0.2737320000
C          C       0.74857   0.52510   0.55903   0.0091720000
C          C       0.71959   0.51854   0.51319   0.1647080000
N          N       0.74659   0.01017   0.46879  -0.2682140000
C          C       0.79921   0.00582   0.46565   0.0889170000
H          H       0.73150   0.53724   0.59267   0.1159900000
C          C       0.82157  -0.00010   0.41715   0.2167720000
O          O       0.79558   0.98282   0.38139  -0.3191290000
H          H       0.85870   0.98990   0.41567   0.0600920000
