data_crystal
 
_cell_length_a    12.041
_cell_length_b    4.895
_cell_length_c    23.472
_cell_angle_alpha 89.998
_cell_angle_beta  101.086
_cell_angle_gamma 90.011
 
_symmetry_space_group_name_Hall 'P 1'
_symmetry_space_group_name_H-M  'P 1'
 
loop_
_symmetry_equiv_pos_as_xyz
 'x,y,z' 
 
loop_
_atom_site_label
_atom_site_type_symbol
_atom_site_fract_x
_atom_site_fract_y
_atom_site_fract_z
_atom_site_charge
C          C         0.484     0.265     0.266   0.00000
C          C         0.016     0.765     0.234   0.00000
C          C         0.516     0.735     0.734   0.00000
C          C         0.984     0.235     0.766   0.00000
C          C         0.399     0.199     0.303   0.00000
C          C         0.101     0.699     0.197   0.00000
C          C         0.601     0.801     0.697   0.00000
C          C         0.899     0.301     0.803   0.00000
C          C         0.305     0.371     0.301   0.00000
C          C         0.195     0.871     0.199   0.00000
C          C         0.695     0.629     0.700   0.00000
C          C         0.805     0.129     0.801   0.00000
H          H         0.296     0.547     0.272   0.00000
H          H         0.204     0.047     0.228   0.00000
H          H         0.704     0.453     0.729   0.00000
H          H         0.796     0.953     0.772   0.00000
C          C         0.219     0.298     0.330   0.00000
C          C         0.281     0.798     0.170   0.00000
C          C         0.781     0.702     0.670   0.00000
C          C         0.719     0.202     0.830   0.00000
H          H         0.146     0.431     0.329   0.00000
H          H         0.354     0.931     0.171   0.00000
H          H         0.854     0.569     0.671   0.00000
H          H         0.646     0.069     0.829   0.00000
C          C         0.230     0.061     0.363   0.00000
C          C         0.270     0.561     0.137   0.00000
C          C         0.770     0.939     0.638   0.00000
C          C         0.730     0.439     0.863   0.00000
C          C         0.323     0.886     0.366   0.00000
C          C         0.177     0.386     0.134   0.00000
C          C         0.677     0.114     0.634   0.00000
C          C         0.823     0.614     0.866   0.00000
H          H         0.331     0.701     0.392   0.00000
H          H         0.169     0.201     0.108   0.00000
H          H         0.669     0.299     0.608   0.00000
H          H         0.831     0.799     0.892   0.00000
C          C         0.407     0.958     0.335   0.00000
C          C         0.093     0.458     0.165   0.00000
C          C         0.593     0.042     0.665   0.00000
C          C         0.907     0.542     0.835   0.00000
H          H         0.477     0.818     0.332   0.00000
H          H         0.023     0.318     0.168   0.00000
H          H         0.523     0.182     0.668   0.00000
H          H         0.977     0.682     0.832   0.00000
C          C         0.162     0.060     0.475   0.00000
C          C         0.338     0.560     0.025   0.00000
C          C         0.838     0.940     0.525   0.00000
C          C         0.662     0.440     0.975   0.00000
C          C         0.117     0.297     0.493   0.00000
C          C         0.383     0.797     0.007   0.00000
C          C         0.883     0.703     0.507   0.00000
C          C         0.617     0.203     0.993   0.00000
H          H         0.068     0.434     0.461   0.00000
H          H         0.432     0.934     0.039   0.00000
H          H         0.932     0.566     0.539   0.00000
H          H         0.568     0.066     0.961   0.00000
C          C         0.142     0.369     0.551   0.00000
C          C         0.358     0.869     0.949   0.00000
C          C         0.858     0.631     0.449   0.00000
C          C         0.642     0.130     0.051   0.00000
H          H         0.105     0.552     0.566   0.00000
H          H         0.395     0.052     0.934   0.00000
H          H         0.895     0.448     0.434   0.00000
H          H         0.605     0.948     0.066   0.00000
C          C         0.209     0.197     0.592   0.00000
C          C         0.291     0.697     0.909   0.00000
C          C         0.791     0.803     0.409   0.00000
C          C         0.709     0.302     0.091   0.00000
C          C         0.256     0.962     0.573   0.00000
C          C         0.244     0.462     0.928   0.00000
C          C         0.744     0.038     0.427   0.00000
C          C         0.756     0.538     0.073   0.00000
H          H         0.305     0.825     0.605   0.00000
H          H         0.195     0.325     0.896   0.00000
H          H         0.695     0.175     0.396   0.00000
H          H         0.805     0.675     0.104   0.00000
C          C         0.233     0.889     0.514   0.00000
C          C         0.267     0.389     0.987   0.00000
C          C         0.767     0.111     0.486   0.00000
C          C         0.733     0.611     0.014   0.00000
H          H         0.273     0.709     0.499   0.00000
H          H         0.227     0.209     0.001   0.00000
H          H         0.727     0.291     0.501   0.00000
H          H         0.773     0.791     0.999   0.00000
C          C         0.229     0.295     0.653   0.00000
C          C         0.271     0.795     0.847   0.00000
C          C         0.771     0.705     0.347   0.00000
C          C         0.729     0.205     0.153   0.00000
O          O         0.472     0.493     0.240   0.00000
O          O         1.028     0.993     0.260   0.00000
O          O         0.528     0.507     0.760   0.00000
O          O        -0.028     0.007     0.740   0.00000
O          O         0.560     0.090     0.262   0.00000
O          O         0.940     0.590     0.238   0.00000
O          O         0.440     0.910     0.738   0.00000
O          O         0.060     0.410     0.762   0.00000
O          O         0.015     0.112     0.377   0.00000
O          O         0.485     0.612     0.123   0.00000
O          O         0.985     0.888     0.623   0.00000
O          O         0.515     0.388     0.877   0.00000
O          O         0.123     0.670     0.400   0.00000
O          O         0.378     0.170     0.100   0.00000
O          O         0.877     0.330     0.600   0.00000
O          O         0.622     0.830     0.900   0.00000
O          O         0.238     0.549     0.659   0.00000
O          O         0.261     1.049     0.841   0.00000
O          O         0.762     0.451     0.341   0.00000
O          O         0.739    -0.049     0.159   0.00000
O          O         0.235     0.133     0.697   0.00000
O          O         0.265     0.632     0.804   0.00000
O          O         0.765     0.867     0.303   0.00000
O          O         0.735     0.368     0.197   0.00000
S          S         0.121    -0.033     0.400   0.00000
S          S         0.379     0.467     0.100   0.00000
S          S         0.879     1.033     0.600   0.00000
S          S         0.621     0.532     0.901   0.00000
Ca         Ca        0.626     0.727     0.217   0.00000
Ca         Ca        0.874     0.227     0.283   0.00000
Ca         Ca        0.374     0.273     0.783   0.00000
Ca         Ca        0.126     0.773     0.718   0.00000
