data_crystal
 
_cell_length_a    37.19368
_cell_length_b    18.59684
_cell_length_c    18.59684
_cell_angle_alpha 60.00000
_cell_angle_beta  60.00000
_cell_angle_gamma 60.00000
 
_symmetry_space_group_name_Hall 'P 1'
_symmetry_space_group_name_H-M  'P 1'
 
loop_
_symmetry_equiv_pos_as_xyz
 'x,y,z' 
 
loop_
_atom_site_label
_atom_site_type_symbol
_atom_site_fract_x
_atom_site_fract_y
_atom_site_fract_z
_atom_site_charge
C          C       0.10026   0.20053   0.52855   0.00000
C          C       0.39990   0.79980   0.47047   0.00000
C          C       0.03463   0.52953   0.20020   0.00000
C          C       0.46497   0.47047   0.79980   0.00000
C          C       0.26477   0.07007   0.20020   0.00000
C          C       0.23523   0.92993   0.79980   0.00000
C          C       0.10010   0.20020   0.07007   0.00000
C          C       0.39990   0.79980   0.92993   0.00000
C          C       0.26477   0.20020   0.20020   0.00000
C          C       0.23523   0.79980   0.79980   0.00000
C          C       0.10010   0.52953   0.20020   0.00000
C          C       0.39990   0.47046   0.79980   0.00000
C          C       0.03503   0.20020   0.20020   0.00000
C          C       0.46497   0.79980   0.79980   0.00000
C          C       0.26477   0.20020   0.07007   0.00000
C          C       0.23523   0.79980   0.92993   0.00000
C          C       0.10010   0.07007   0.52954   0.00000
C          C       0.39990   0.92993   0.47046   0.00000
C          C       0.03503   0.20020   0.52954   0.00000
C          C       0.46497   0.79980   0.47047   0.00000
C          C       0.10010   0.52954   0.07007   0.00000
C          C       0.39990   0.47046   0.92993   0.00000
C          C       0.10010   0.07007   0.20020   0.00000
C          C       0.39990   0.92993   0.79980   0.00000
C          C       0.03462   0.33774   0.52380   0.00000
C          C       0.46538   0.66225   0.47621   0.00000
C          C       0.03461   0.52380   0.33775   0.00000
C          C       0.46539   0.47620   0.66226   0.00000
C          C       0.26190   0.06923   0.06923   0.00000
C          C       0.23810   0.93077   0.93077   0.00000
C          C       0.16887   0.06923   0.06923   0.00000
C          C       0.33113   0.93077   0.93077   0.00000
C          C       0.26190   0.06923   0.33774   0.00000
C          C       0.23810   0.93077   0.66226   0.00000
C          C       0.16887   0.52380   0.06923   0.00000
C          C       0.33113   0.47620   0.93077   0.00000
C          C       0.03461   0.33774   0.06923   0.00000
C          C       0.46538   0.66226   0.93077   0.00000
C          C       0.26190   0.33774   0.06923   0.00000
C          C       0.23810   0.66226   0.93077   0.00000
C          C       0.16887   0.06923   0.52380   0.00000
C          C       0.33113   0.93077   0.47621   0.00000
C          C       0.03461   0.06923   0.52380   0.00000
C          C       0.46538   0.93077   0.47620   0.00000
C          C       0.03461   0.52380   0.06923   0.00000
C          C       0.46539   0.47620   0.93077   0.00000
C          C       0.03461   0.06923   0.33774   0.00000
C          C       0.46539   0.93077   0.66226   0.00000
C          C       0.05677   0.24345   0.52948   0.00000
C          C       0.44323   0.75655   0.47052   0.00000
C          C       0.05677   0.52948   0.24345   0.00000
C          C       0.44323   0.47052   0.75655   0.00000
C          C       0.26474   0.11354   0.11354   0.00000
C          C       0.23526   0.88646   0.88646   0.00000
C          C       0.12172   0.11354   0.11354   0.00000
C          C       0.37828   0.88646   0.88646   0.00000
C          C       0.26474   0.11354   0.24345   0.00000
C          C       0.23526   0.88646   0.75655   0.00000
C          C       0.12172   0.52948   0.11354   0.00000
C          C       0.37828   0.47052   0.88646   0.00000
C          C       0.05677   0.24345   0.11354   0.00000
C          C       0.44323   0.75655   0.88646   0.00000
C          C       0.26474   0.24345   0.11354   0.00000
C          C       0.23526   0.75655   0.88646   0.00000
C          C       0.12172   0.11354   0.52948   0.00000
C          C       0.37828   0.88646   0.47052   0.00000
C          C       0.05677   0.11354   0.52948   0.00000
C          C       0.44323   0.88646   0.47052   0.00000
C          C       0.05677   0.52948   0.11354   0.00000
C          C       0.44323   0.47052   0.88646   0.00000
C          C       0.05677   0.11354   0.24345   0.00000
C          C       0.44323   0.88646   0.75655   0.00000
H          H       0.11733   0.23466   0.52792   0.00000
H          H       0.38267   0.76534   0.47208   0.00000
H          H       0.00138   0.52792   0.23466   0.00000
H          H       0.49862   0.47208   0.76534   0.00000
H          H       0.26396   0.00277   0.23466   0.00000
H          H       0.23604   0.99723   0.76535   0.00000
H          H       0.11733   0.23466   0.00277   0.00000
H          H       0.38267   0.76534   0.99723   0.00000
H          H       0.26396   0.23466   0.23466   0.00000
H          H       0.23604   0.76534   0.76534   0.00000
H          H       0.11733   0.52792   0.23466   0.00000
H          H       0.38267   0.47208   0.76535   0.00000
H          H       0.00138   0.23466   0.23466   0.00000
H          H       0.49862   0.76534   0.76534   0.00000
H          H       0.26396   0.23466   0.00277   0.00000
H          H       0.23604   0.76534   0.99723   0.00000
H          H       0.11733   0.00277   0.52792   0.00000
H          H       0.38267   0.99723   0.47208   0.00000
H          H       0.00138   0.23465   0.52792   0.00000
H          H       0.49862   0.76534   0.47208   0.00000
H          H       0.11733   0.52792   0.00277   0.00000
H          H       0.38267   0.47208   0.99723   0.00000
H          H       0.11733   0.00277   0.23466   0.00000
H          H       0.38267   0.99723   0.76535   0.00000
O          O       0.05685   0.37443   0.52053   0.00000
O          O       0.44315   0.62557   0.47947   0.00000
O          O       0.00432   0.47947   0.62557   0.00000
O          O       0.49568   0.52053   0.37443   0.00000
O          O       0.23933   0.00865   0.88630   0.00000
O          O       0.26027   0.99135   0.11370   0.00000
O          O       0.18721   0.11370   0.99135   0.00000
O          O       0.31279   0.88630   0.00865   0.00000
O          O       0.26026   0.11369   0.37443   0.00000
O          O       0.23974   0.88631   0.62557   0.00000
O          O       0.18721   0.52053   0.11370   0.00000
O          O       0.31279   0.47947   0.88630   0.00000
O          O       0.49568   0.37443   0.11369   0.00000
O          O       0.00432   0.62557   0.88631   0.00000
O          O       0.23973   0.62558   0.00864   0.00000
O          O       0.26027   0.37442   0.99136   0.00000
O          O       0.31279   0.00864   0.47947   0.00000
O          O       0.18721   0.99136   0.52053   0.00000
O          O       0.00432   0.88630   0.47947   0.00000
O          O       0.49568   0.11370   0.52053   0.00000
O          O       0.44315   0.47947   0.00864   0.00000
O          O       0.05685   0.52053   0.99136   0.00000
O          O       0.05685   0.99136   0.37442   0.00000
O          O       0.44315   0.00864   0.62558   0.00000
O          O       0.05684   0.52053   0.37443   0.00000
O          O       0.44316   0.47947   0.62557   0.00000
O          O       0.00432   0.62557   0.47947   0.00000
O          O       0.49568   0.37443   0.52053   0.00000
O          O       0.23974   0.88631   0.00864   0.00000
O          O       0.26026   0.11369   0.99136   0.00000
O          O       0.18721   0.99136   0.11369   0.00000
O          O       0.31279   0.00864   0.88631   0.00000
O          O       0.26026   0.37442   0.11370   0.00000
O          O       0.23974   0.62558   0.88630   0.00000
O          O       0.18721   0.11370   0.52053   0.00000
O          O       0.31279   0.88630   0.47947   0.00000
O          O       0.49568   0.11370   0.37442   0.00000
O          O       0.00432   0.88630   0.62558   0.00000
O          O       0.23973   0.00865   0.62557   0.00000
O          O       0.26026   0.99135   0.37443   0.00000
O          O       0.31279   0.47947   0.00864   0.00000
O          O       0.18721   0.52053   0.99136   0.00000
O          O       0.00432   0.47947   0.88630   0.00000
O          O       0.49568   0.52053   0.11370   0.00000
O          O       0.44315   0.00864   0.47947   0.00000
O          O       0.05685   0.99136   0.52053   0.00000
O          O       0.05685   0.37443   0.99135   0.00000
O          O       0.44315   0.62557   0.00865   0.00000
Cu         Cu      0.03257   0.50000   0.50000   0.00000
Cu         Cu      0.46743   0.50000   0.50000   0.00000
Cu         Cu      0.25000   0.06513   0.93487   0.00000
Cu         Cu      0.25000   0.93487   0.06513   0.00000
Cu         Cu      0.25000   0.06513   0.50000   0.00000
Cu         Cu      0.25000   0.93487   0.50000   0.00000
Cu         Cu      0.25000   0.50000   0.06513   0.00000
Cu         Cu      0.25000   0.50000   0.93486   0.00000
Cu         Cu      0.03257   0.50000   0.93487   0.00000
Cu         Cu      0.46743   0.50000   0.06513   0.00000
Cu         Cu      0.03257   0.93486   0.50000   0.00000
Cu         Cu      0.46743   0.06513   0.50000   0.00000
C          C       0.60026   0.20053   0.52855   0.00000
C          C       0.89990   0.79980   0.47047   0.00000
C          C       0.53463   0.52953   0.20020   0.00000
C          C       0.96497   0.47047   0.79980   0.00000
C          C       0.76477   0.07007   0.20020   0.00000
C          C       0.73523   0.92993   0.79980   0.00000
C          C       0.60010   0.20020   0.07007   0.00000
C          C       0.89990   0.79980   0.92993   0.00000
C          C       0.76477   0.20020   0.20020   0.00000
C          C       0.73523   0.79980   0.79980   0.00000
C          C       0.60010   0.52953   0.20020   0.00000
C          C       0.89990   0.47046   0.79980   0.00000
C          C       0.53503   0.20020   0.20020   0.00000
C          C       0.96497   0.79980   0.79980   0.00000
C          C       0.76477   0.20020   0.07007   0.00000
C          C       0.73523   0.79980   0.92993   0.00000
C          C       0.60010   0.07007   0.52954   0.00000
C          C       0.89990   0.92993   0.47046   0.00000
C          C       0.53503   0.20020   0.52954   0.00000
C          C       0.96497   0.79980   0.47047   0.00000
C          C       0.60010   0.52954   0.07007   0.00000
C          C       0.89990   0.47046   0.92993   0.00000
C          C       0.60010   0.07007   0.20020   0.00000
C          C       0.89990   0.92993   0.79980   0.00000
C          C       0.53462   0.33774   0.52380   0.00000
C          C       0.96538   0.66225   0.47621   0.00000
C          C       0.53461   0.52380   0.33775   0.00000
C          C       0.96539   0.47620   0.66226   0.00000
C          C       0.76190   0.06923   0.06923   0.00000
C          C       0.73810   0.93077   0.93077   0.00000
C          C       0.66887   0.06923   0.06923   0.00000
C          C       0.83113   0.93077   0.93077   0.00000
C          C       0.76190   0.06923   0.33774   0.00000
C          C       0.73810   0.93077   0.66226   0.00000
C          C       0.66887   0.52380   0.06923   0.00000
C          C       0.83113   0.47620   0.93077   0.00000
C          C       0.53461   0.33774   0.06923   0.00000
C          C       0.96538   0.66226   0.93077   0.00000
C          C       0.76190   0.33774   0.06923   0.00000
C          C       0.73810   0.66226   0.93077   0.00000
C          C       0.66887   0.06923   0.52380   0.00000
C          C       0.83113   0.93077   0.47621   0.00000
C          C       0.53461   0.06923   0.52380   0.00000
C          C       0.96538   0.93077   0.47620   0.00000
C          C       0.53461   0.52380   0.06923   0.00000
C          C       0.96539   0.47620   0.93077   0.00000
C          C       0.53461   0.06923   0.33774   0.00000
C          C       0.96539   0.93077   0.66226   0.00000
C          C       0.55677   0.24345   0.52948   0.00000
C          C       0.94323   0.75655   0.47052   0.00000
C          C       0.55677   0.52948   0.24345   0.00000
C          C       0.94323   0.47052   0.75655   0.00000
C          C       0.76474   0.11354   0.11354   0.00000
C          C       0.73526   0.88646   0.88646   0.00000
C          C       0.62172   0.11354   0.11354   0.00000
C          C       0.87828   0.88646   0.88646   0.00000
C          C       0.76474   0.11354   0.24345   0.00000
C          C       0.73526   0.88646   0.75655   0.00000
C          C       0.62172   0.52948   0.11354   0.00000
C          C       0.87828   0.47052   0.88646   0.00000
C          C       0.55677   0.24345   0.11354   0.00000
C          C       0.94323   0.75655   0.88646   0.00000
C          C       0.76474   0.24345   0.11354   0.00000
C          C       0.73526   0.75655   0.88646   0.00000
C          C       0.62172   0.11354   0.52948   0.00000
C          C       0.87828   0.88646   0.47052   0.00000
C          C       0.55677   0.11354   0.52948   0.00000
C          C       0.94323   0.88646   0.47052   0.00000
C          C       0.55677   0.52948   0.11354   0.00000
C          C       0.94323   0.47052   0.88646   0.00000
C          C       0.55677   0.11354   0.24345   0.00000
C          C       0.94323   0.88646   0.75655   0.00000
H          H       0.61733   0.23466   0.52792   0.00000
H          H       0.88267   0.76534   0.47208   0.00000
H          H       0.50138   0.52792   0.23466   0.00000
H          H       0.99862   0.47208   0.76534   0.00000
H          H       0.76396   0.00277   0.23466   0.00000
H          H       0.73604   0.99723   0.76535   0.00000
H          H       0.61733   0.23466   0.00277   0.00000
H          H       0.88267   0.76534   0.99723   0.00000
H          H       0.76396   0.23466   0.23466   0.00000
H          H       0.73604   0.76534   0.76534   0.00000
H          H       0.61733   0.52792   0.23466   0.00000
H          H       0.88267   0.47208   0.76535   0.00000
H          H       0.50138   0.23466   0.23466   0.00000
H          H       0.99862   0.76534   0.76534   0.00000
H          H       0.76396   0.23466   0.00277   0.00000
H          H       0.73604   0.76534   0.99723   0.00000
H          H       0.61733   0.00277   0.52792   0.00000
H          H       0.88267   0.99723   0.47208   0.00000
H          H       0.50138   0.23465   0.52792   0.00000
H          H       0.99862   0.76534   0.47208   0.00000
H          H       0.61733   0.52792   0.00277   0.00000
H          H       0.88267   0.47208   0.99723   0.00000
H          H       0.61733   0.00277   0.23466   0.00000
H          H       0.88267   0.99723   0.76535   0.00000
O          O       0.55685   0.37443   0.52053   0.00000
O          O       0.94315   0.62557   0.47947   0.00000
O          O       0.50432   0.47947   0.62557   0.00000
O          O       0.99567   0.52053   0.37443   0.00000
O          O       0.73933   0.00865   0.88630   0.00000
O          O       0.76027   0.99135   0.11370   0.00000
O          O       0.68721   0.11370   0.99135   0.00000
O          O       0.81279   0.88630   0.00865   0.00000
O          O       0.76026   0.11369   0.37443   0.00000
O          O       0.73974   0.88631   0.62557   0.00000
O          O       0.68721   0.52053   0.11370   0.00000
O          O       0.81279   0.47947   0.88630   0.00000
O          O       0.99568   0.37443   0.11369   0.00000
O          O       0.50432   0.62557   0.88631   0.00000
O          O       0.73973   0.62558   0.00864   0.00000
O          O       0.76027   0.37442   0.99136   0.00000
O          O       0.81279   0.00864   0.47947   0.00000
O          O       0.68721   0.99136   0.52053   0.00000
O          O       0.50432   0.88630   0.47947   0.00000
O          O       0.99568   0.11370   0.52053   0.00000
O          O       0.94315   0.47947   0.00864   0.00000
O          O       0.55685   0.52053   0.99136   0.00000
O          O       0.55685   0.99136   0.37442   0.00000
O          O       0.94315   0.00864   0.62558   0.00000
O          O       0.55684   0.52053   0.37443   0.00000
O          O       0.94315   0.47947   0.62557   0.00000
O          O       0.50432   0.62557   0.47947   0.00000
O          O       0.99568   0.37443   0.52053   0.00000
O          O       0.73974   0.88631   0.00864   0.00000
O          O       0.76026   0.11369   0.99136   0.00000
O          O       0.68721   0.99136   0.11369   0.00000
O          O       0.81279   0.00864   0.88631   0.00000
O          O       0.76026   0.37442   0.11370   0.00000
O          O       0.73974   0.62558   0.88630   0.00000
O          O       0.68721   0.11370   0.52053   0.00000
O          O       0.81279   0.88630   0.47947   0.00000
O          O       0.99568   0.11370   0.37442   0.00000
O          O       0.50432   0.88630   0.62558   0.00000
O          O       0.73973   0.00865   0.62557   0.00000
O          O       0.76026   0.99135   0.37443   0.00000
O          O       0.81279   0.47947   0.00864   0.00000
O          O       0.68721   0.52053   0.99136   0.00000
O          O       0.50432   0.47947   0.88630   0.00000
O          O       0.99568   0.52053   0.11370   0.00000
O          O       0.94315   0.00864   0.47947   0.00000
O          O       0.55685   0.99136   0.52053   0.00000
O          O       0.55685   0.37443   0.99135   0.00000
O          O       0.94315   0.62557   0.00865   0.00000
Cu         Cu      0.53257   0.50000   0.50000   0.00000
Cu         Cu      0.96743   0.50000   0.50000   0.00000
Cu         Cu      0.75000   0.06513   0.93487   0.00000
Cu         Cu      0.75000   0.93487   0.06513   0.00000
Cu         Cu      0.75000   0.06513   0.50000   0.00000
Cu         Cu      0.75000   0.93487   0.50000   0.00000
Cu         Cu      0.75000   0.50000   0.06513   0.00000
Cu         Cu      0.75000   0.50000   0.93486   0.00000
Cu         Cu      0.53257   0.50000   0.93487   0.00000
Cu         Cu      0.96743   0.50000   0.06513   0.00000
Cu         Cu      0.53257   0.93486   0.50000   0.00000
Cu         Cu      0.96743   0.06513   0.50000   0.00000
