data_crystal
 
_cell_length_a    18.59684
_cell_length_b    18.59684
_cell_length_c    18.59684
_cell_angle_alpha 60.000
_cell_angle_beta  60.000
_cell_angle_gamma 60.000
 
_symmetry_space_group_name_Hall 'P 1'
_symmetry_space_group_name_H-M  'P 1'
 
loop_
_symmetry_equiv_pos_as_xyz
 'x,y,z' 
 
loop_
_atom_site_label
_atom_site_type_symbol
_atom_site_fract_x
_atom_site_fract_y
_atom_site_fract_z
_atom_site_charge
C          C      0.200527      0.200530      0.528546      0.00000
C          C      0.799802      0.799799      0.470466      0.00000
C          C      0.069260      0.529534      0.200201      0.00000
C          C      0.929933      0.470466      0.799799      0.00000
C          C      0.529536      0.070067      0.200200      0.00000
C          C      0.470464      0.929933      0.799800      0.00000
C          C      0.200197      0.200200      0.070067      0.00000
C          C      0.799803      0.799800      0.929933      0.00000
C          C      0.529535      0.200196      0.200200      0.00000
C          C      0.470465      0.799804      0.799800      0.00000
C          C      0.200196      0.529535      0.200200      0.00000
C          C      0.799804      0.470465      0.799800      0.00000
C          C      0.070069      0.200200      0.200196      0.00000
C          C      0.929931      0.799800      0.799804      0.00000
C          C      0.529536      0.200196      0.070072      0.00000
C          C      0.470464      0.799804      0.929928      0.00000
C          C      0.200196      0.070072      0.529536      0.00000
C          C      0.799804      0.929928      0.470464      0.00000
C          C      0.070069      0.200200      0.529535      0.00000
C          C      0.929932      0.799800      0.470465      0.00000
C          C      0.200196      0.529536      0.070072      0.00000
C          C      0.799804      0.470464      0.929928      0.00000
C          C      0.200197      0.070072      0.200196      0.00000
C          C      0.799803      0.929928      0.799804      0.00000
C          C      0.069231      0.337745      0.523795      0.00000
C          C      0.930769      0.662255      0.476205      0.00000
C          C      0.069229      0.523795      0.337745      0.00000
C          C      0.930771      0.476205      0.662255      0.00000
C          C      0.523797      0.069231      0.069233      0.00000
C          C      0.476203      0.930769      0.930767      0.00000
C          C      0.337739      0.069233      0.069231      0.00000
C          C      0.662261      0.930767      0.930769      0.00000
C          C      0.523796      0.069230      0.337744      0.00000
C          C      0.476204      0.930770      0.662256      0.00000
C          C      0.337740      0.523798      0.069232      0.00000
C          C      0.662260      0.476202      0.930768      0.00000
C          C      0.069230      0.337744      0.069230      0.00000
C          C      0.930770      0.662256      0.930770      0.00000
C          C      0.523796      0.337740      0.069234      0.00000
C          C      0.476203      0.662260      0.930766      0.00000
C          C      0.337742      0.069233      0.523795      0.00000
C          C      0.662258      0.930767      0.476205      0.00000
C          C      0.069230      0.069232      0.523798      0.00000
C          C      0.930770      0.930768      0.476202      0.00000
C          C      0.069229      0.523795      0.069233      0.00000
C          C      0.930771      0.476205      0.930767      0.00000
C          C      0.069229      0.069234      0.337740      0.00000
C          C      0.930771      0.930766      0.662260      0.00000
C          C      0.113537      0.243452      0.529477      0.00000
C          C      0.886463      0.756548      0.470523      0.00000
C          C      0.113534      0.529477      0.243452      0.00000
C          C      0.886466      0.470523      0.756548      0.00000
C          C      0.529479      0.113536      0.113539      0.00000
C          C      0.470521      0.886464      0.886461      0.00000
C          C      0.243446      0.113539      0.113536      0.00000
C          C      0.756554      0.886461      0.886464      0.00000
C          C      0.529478      0.113536      0.243450      0.00000
C          C      0.470522      0.886464      0.756550      0.00000
C          C      0.243444      0.529480      0.113539      0.00000
C          C      0.756555      0.470520      0.886461      0.00000
C          C      0.113536      0.243450      0.113536      0.00000
C          C      0.886464      0.756550      0.886464      0.00000
C          C      0.529479      0.243446      0.113540      0.00000
C          C      0.470521      0.756554      0.886460      0.00000
C          C      0.243448      0.113540      0.529477      0.00000
C          C      0.756552      0.886460      0.470523      0.00000
C          C      0.113537      0.113539      0.529480      0.00000
C          C      0.886463      0.886461      0.470520      0.00000
C          C      0.113534      0.529477      0.113540      0.00000
C          C      0.886466      0.470523      0.886460      0.00000
C          C      0.113536      0.113540      0.243446      0.00000
C          C      0.886464      0.886460      0.756554      0.00000
H          H      0.234659      0.234657      0.527920      0.00000
H          H      0.765341      0.765343      0.472080      0.00000
H          H      0.002765      0.527920      0.234657      0.00000
H          H      0.997235      0.472080      0.765343      0.00000
H          H      0.527921      0.002766      0.234655      0.00000
H          H      0.472079      0.997234      0.765345      0.00000
H          H      0.234658      0.234655      0.002766      0.00000
H          H      0.765342      0.765345      0.997234      0.00000
H          H      0.527920      0.234657      0.234657      0.00000
H          H      0.472080      0.765343      0.765343      0.00000
H          H      0.234657      0.527921      0.234655      0.00000
H          H      0.765343      0.472079      0.765345      0.00000
H          H      0.002767      0.234657      0.234657      0.00000
H          H      0.997233      0.765343      0.765343      0.00000
H          H      0.527920      0.234655      0.002770      0.00000
H          H      0.472080      0.765345      0.997230      0.00000
H          H      0.234654      0.002770      0.527920      0.00000
H          H      0.765346      0.997230      0.472080      0.00000
H          H      0.002767      0.234655      0.527921      0.00000
H          H      0.997233      0.765345      0.472079      0.00000
H          H      0.234656      0.527920      0.002770      0.00000
H          H      0.765344      0.472080      0.997230      0.00000
H          H      0.234655      0.002770      0.234655      0.00000
H          H      0.765345      0.997230      0.765345      0.00000
O          O      0.113691      0.374431      0.520528      0.00000
O          O      0.886309      0.625569      0.479472      0.00000
O          O      0.008650      0.479472      0.625569      0.00000
O          O      0.991350      0.520528      0.374431      0.00000
O          O      0.478662      0.008650      0.886304      0.00000
O          O      0.520531      0.991350      0.113696      0.00000
O          O      0.374423      0.113696      0.991350      0.00000
O          O      0.625577      0.886304      0.008650      0.00000
O          O      0.520526      0.113693      0.374428      0.00000
O          O      0.479474      0.886307      0.625572      0.00000
O          O      0.374421      0.520527      0.113698      0.00000
O          O      0.625579      0.479473      0.886302      0.00000
O          O      0.991353      0.374428      0.113693      0.00000
O          O      0.008647      0.625572      0.886307      0.00000
O          O      0.479469      0.625579      0.008644      0.00000
O          O      0.520531      0.374421      0.991356      0.00000
O          O      0.625575      0.008643      0.479473      0.00000
O          O      0.374425      0.991357      0.520527      0.00000
O          O      0.008646      0.886302      0.479473      0.00000
O          O      0.991354      0.113698      0.520527      0.00000
O          O      0.886309      0.479473      0.008643      0.00000
O          O      0.113691      0.520527      0.991357      0.00000
O          O      0.113691      0.991356      0.374421      0.00000
O          O      0.886309      0.008644      0.625579      0.00000
O          O      0.113690      0.520526      0.374431      0.00000
O          O      0.886310      0.479474      0.625569      0.00000
O          O      0.008648      0.625569      0.479474      0.00000
O          O      0.991352      0.374431      0.520526      0.00000
O          O      0.479473      0.886306      0.008644      0.00000
O          O      0.520527      0.113694      0.991356      0.00000
O          O      0.374423      0.991356      0.113694      0.00000
O          O      0.625577      0.008644      0.886306      0.00000
O          O      0.520526      0.374422      0.113698      0.00000
O          O      0.479474      0.625578      0.886302      0.00000
O          O      0.374425      0.113696      0.520528      0.00000
O          O      0.625575      0.886304      0.479472      0.00000
O          O      0.991353      0.113698      0.374422      0.00000
O          O      0.008647      0.886302      0.625578      0.00000
O          O      0.479470      0.008649      0.625572      0.00000
O          O      0.520530      0.991351      0.374428      0.00000
O          O      0.625582      0.479467      0.008643      0.00000
O          O      0.374418      0.520533      0.991357      0.00000
O          O      0.008649      0.479472      0.886304      0.00000
O          O      0.991351      0.520528      0.113696      0.00000
O          O      0.886308      0.008643      0.479467      0.00000
O          O      0.113692      0.991357      0.520533      0.00000
O          O      0.113691      0.374428      0.991351      0.00000
O          O      0.886309      0.625572      0.008649      0.00000
Cu         Cu     0.065131      0.500000      0.500000      0.00000
Cu         Cu     0.934869      0.500000      0.500000      0.00000
Cu         Cu     0.499998      0.065132      0.934868      0.00000
Cu         Cu     0.500002      0.934868      0.065132      0.00000
Cu         Cu     0.499999      0.065133      0.500001      0.00000
Cu         Cu     0.500001      0.934867      0.499999      0.00000
Cu         Cu     0.499999      0.499999      0.065135      0.00000
Cu         Cu     0.500001      0.500001      0.934865      0.00000
Cu         Cu     0.065133      0.499999      0.934867      0.00000
Cu         Cu     0.934867      0.500001      0.065133      0.00000
Cu         Cu     0.065133      0.934865      0.500001      0.00000
Cu         Cu     0.934866      0.065135      0.499999      0.00000
