data_crystal
 
_cell_length_a    41.87000
_cell_length_b    41.86015
_cell_length_c    17.56500
_cell_angle_alpha 90.00000
_cell_angle_beta  90.00000
_cell_angle_gamma 119.99988
 
_symmetry_space_group_name_Hall 'P 1'
_symmetry_space_group_name_H-M  'P 1'
 
loop_
_symmetry_equiv_pos_as_xyz
 'x,y,z' 
 
loop_
_atom_site_label
_atom_site_type_symbol
_atom_site_fract_x
_atom_site_fract_y
_atom_site_fract_z
_atom_site_charge
Zn         Zn      0.40857   0.47845   0.74910   1.30178
Zn         Zn      0.59122   0.52183   0.24911   1.30040
Zn         Zn      0.52172   0.93047   0.74908   1.30132
Zn         Zn      0.47833   0.06969   0.24913   1.30067
Zn         Zn      0.06955   0.59131   0.74904   1.30194
Zn         Zn      0.92988   0.40852   0.24906   1.30253
Zn         Zn      0.37189   0.40210   0.65970   1.29068
Zn         Zn      0.62791   0.59799   0.33985   1.28995
Zn         Zn      0.59775   0.96980   0.65968   1.28906
Zn         Zn      0.40205   0.03014   0.34021   1.28510
Zn         Zn      0.03007   0.62812   0.65976   1.28325
Zn         Zn      0.96968   0.37195   0.34004   1.28908
Zn         Zn      0.62799   0.59803   0.15981   1.29092
Zn         Zn      0.37188   0.40222   0.84008   1.29073
Zn         Zn      0.40204   0.03028   0.15992   1.29326
Zn         Zn      0.59776   0.96983   0.84002   1.28847
Zn         Zn      0.96980   0.37191   0.15971   1.28568
Zn         Zn      0.03010   0.62816   0.83991   1.28895
Zn         Zn      0.32179   0.42693   0.74878   1.26739
Zn         Zn      0.67842   0.57349   0.24856   1.26866
Zn         Zn      0.57299   0.89486   0.74888   1.26769
Zn         Zn      0.42658   0.10501   0.25136   1.26726
Zn         Zn      0.10500   0.67841   0.74840   1.26763
Zn         Zn      0.89477   0.32194   0.24862   1.26793
O          O       0.36841   0.42731   0.74973  -1.56497
O          O       0.63160   0.57283   0.24978  -1.56342
O          O       0.57272   0.94114   0.74980  -1.56314
O          O       0.42723   0.05887   0.25013  -1.56215
O          O       0.05880   0.63165   0.74974  -1.56092
O          O       0.94109   0.36850   0.24970  -1.56414
O          O       0.44094   0.48939   0.66161  -0.60650
O          O       0.55910   0.51073   0.33780  -0.60875
O          O       0.51060   0.95163   0.66149  -0.60729
O          O       0.48930   0.04845   0.33773  -0.60833
O          O       0.04835   0.55902   0.66136  -0.60904
O          O       0.95146   0.44082   0.33763  -0.60876
O          O       0.55899   0.51066   0.16143  -0.60706
O          O       0.44082   0.48933   0.83770  -0.60998
O          O       0.48931   0.04838   0.16149  -0.60684
O          O       0.51067   0.95158   0.83773  -0.60831
O          O       0.95153   0.44096   0.16164  -0.60914
O          O       0.04838   0.55914   0.83777  -0.60798
O          O       0.29355   0.40623   0.65603  -0.60049
O          O       0.70654   0.59538   0.34156  -0.60174
O          O       0.59383   0.88742   0.65634  -0.60118
O          O       0.40621   0.11269   0.34430  -0.60579
O          O       0.11272   0.70647   0.65517  -0.60416
O          O       0.88750   0.29369   0.34199  -0.60052
O          O       0.70642   0.59377   0.15534  -0.60241
O          O       0.29363   0.40613   0.84228  -0.60263
O          O       0.40607   0.11248   0.15763  -0.60197
O          O       0.59389   0.88757   0.84222  -0.60266
O          O       0.88730   0.29361   0.15586  -0.60190
O          O       0.11243   0.70640   0.84208  -0.60083
O          O       0.32993   0.38894   0.59179  -0.60061
O          O       0.66954   0.61114   0.40799  -0.60145
O          O       0.61107   0.94111   0.59206  -0.60208
O          O       0.38890   0.05893   0.40821  -0.60002
O          O       0.05888   0.67002   0.59169  -0.59760
O          O       0.94092   0.32992   0.40755  -0.60088
O          O       0.66991   0.61113   0.09185  -0.60091
O          O       0.32991   0.38899   0.90776  -0.60211
O          O       0.38896   0.05907   0.09214  -0.60585
O          O       0.61105   0.94110   0.90738  -0.60125
O          O       0.94101   0.32995   0.09177  -0.59858
O          O       0.05901   0.67007   0.90754  -0.60179
O          O       0.37164   0.35642   0.68318  -0.59035
O          O       0.62828   0.64360   0.31342  -0.59117
O          O       0.64249   0.01570   0.68337  -0.59203
O          O       0.35629   0.98470   0.31662  -0.58756
O          O       0.98457   0.62841   0.68327  -0.58838
O          O       0.01488   0.37206   0.31330  -0.59263
O          O       0.62837   0.64386   0.18339  -0.59129
O          O       0.37175   0.35701   0.81319  -0.59198
O          O       0.35674   0.98506   0.18656  -0.59659
O          O       0.64235   0.01559   0.81329  -0.59103
O          O       0.01520   0.37166   0.18329  -0.58985
O          O       0.98473   0.62838   0.81330  -0.59488
O          O       0.41645   0.43390   0.60043  -0.61763
O          O       0.58351   0.56617   0.39924  -0.61687
O          O       0.56605   0.98258   0.60029  -0.61441
O          O       0.43389   0.01746   0.39931  -0.61356
O          O       0.01738   0.58359   0.60043  -0.61565
O          O       0.98251   0.41647   0.39928  -0.61676
O          O       0.58352   0.56617   0.10041  -0.61843
O          O       0.41641   0.43390   0.89928  -0.61800
O          O       0.43377   0.01741   0.10052  -0.61528
O          O       0.56604   0.98256   0.89943  -0.61539
O          O       0.98255   0.41650   0.10042  -0.61714
O          O       0.01740   0.58363   0.89914  -0.61642
O          O       0.32974   0.47722   0.74985  -0.57148
O          O       0.67032   0.52315   0.24996  -0.57120
O          O       0.52279   0.85257   0.74997  -0.56996
O          O       0.47691   0.14728   0.25001  -0.56693
O          O       0.14725   0.67035   0.74991  -0.56879
O          O       0.85248   0.32989   0.24987  -0.57052
O          O       0.39225   0.51449   0.74996  -0.59489
O          O       0.60772   0.48600   0.24998  -0.59374
O          O       0.48582   0.87817   0.74984  -0.59423
O          O       0.51417   0.12198   0.24999  -0.59374
O          O       0.12184   0.60776   0.74982  -0.59471
O          O       0.87741   0.39244   0.24996  -0.59472
C          C       0.44042   0.46801   0.60906   0.51086
C          C       0.55947   0.53210   0.39017   0.50819
C          C       0.53201   0.97259   0.60906   0.50857
C          C       0.46798   0.02758   0.39028   0.50785
C          C       0.02737   0.55952   0.60903   0.50965
C          C       0.97237   0.44043   0.39016   0.51010
C          C       0.55943   0.53211   0.10912   0.51011
C          C       0.44037   0.46802   0.89029   0.50840
C          C       0.46786   0.02749   0.10904   0.50897
C          C       0.53198   0.97253   0.89024   0.50947
C          C       0.97245   0.44049   0.10914   0.51213
C          C       0.02742   0.55958   0.89016   0.50927
C          C       0.47100   0.48460   0.55219   0.16470
C          C       0.52866   0.51561   0.44660   0.17145
C          C       0.51552   0.98682   0.55253   0.16602
C          C       0.48453   0.01347   0.44698   0.16758
C          C       0.01314   0.52883   0.55238   0.16662
C          C       0.98648   0.47115   0.44681   0.16449
C          C       0.52869   0.51566   0.05261   0.16833
C          C       0.47101   0.48462   0.94706   0.17314
C          C       0.48436   0.01340   0.05218   0.16644
C          C       0.51541   0.98677   0.94665   0.16637
C          C       0.98653   0.47115   0.05238   0.16339
C          C       0.01315   0.52882   0.94675   0.16646
C          C       0.47223   0.46306   0.49225  -0.20951
C          C       0.52735   0.53719   0.50636  -0.21425
C          C       0.53707   0.00957   0.49259  -0.21139
C          C       0.46300   0.99075   0.50698  -0.21251
C          C       0.99019   0.52747   0.49272  -0.21424
C          C       0.00940   0.47248   0.50653  -0.21215
C          C       0.52742   0.53720   0.99271  -0.21139
C          C       0.47223   0.46311   0.00708  -0.21424
C          C       0.46288   0.99075   0.99205  -0.21161
C          C       0.53691   0.00949   0.00668  -0.21135
C          C       0.00936   0.47244   0.99254  -0.21186
C          C       0.99025   0.52749   0.00649  -0.21391
C          C       0.49863   0.52175   0.55894  -0.21655
C          C       0.50094   0.47850   0.43967  -0.22197
C          C       0.47843   0.97746   0.55954  -0.21703
C          C       0.52163   0.02285   0.44003  -0.21809
C          C       0.02268   0.50121   0.55908  -0.21919
C          C       0.97691   0.49874   0.44014  -0.21663
C          C       0.50095   0.47856   0.05962  -0.21840
C          C       0.49870   0.52175   0.94015  -0.22281
C          C       0.52145   0.02275   0.05921  -0.21759
C          C       0.47834   0.97749   0.93949  -0.21685
C          C       0.97699   0.49877   0.05908  -0.21640
C          C       0.02262   0.50115   0.93994  -0.21782
C          C       0.30280   0.39477   0.59701   0.49142
C          C       0.69701   0.60591   0.40152   0.49152
C          C       0.60519   0.90813   0.59732   0.49127
C          C       0.39465   0.09187   0.40314   0.48781
C          C       0.09182   0.69718   0.59646   0.48691
C          C       0.90790   0.30285   0.40146   0.49251
C          C       0.69706   0.60534   0.09667   0.48807
C          C       0.30276   0.39482   0.90171   0.48984
C          C       0.39478   0.09205   0.09819   0.49620
C          C       0.60516   0.90810   0.90152   0.48715
C          C       0.90800   0.30290   0.09683   0.48618
C          C       0.09195   0.69726   0.90143   0.49290
C          C       0.28004   0.38812   0.52739   0.19021
C          C       0.71968   0.61231   0.47120   0.19043
C          C       0.61172   0.89210   0.52752   0.19059
C          C       0.38780   0.10785   0.47267   0.19955
C          C       0.10772   0.71994   0.52676   0.19796
C          C       0.89159   0.28015   0.47114   0.18748
C          C       0.71971   0.61215   0.02693   0.19722
C          C       0.27996   0.38821   0.97136   0.19540
C          C       0.38817   0.10824   0.02853   0.19008
C          C       0.61165   0.89201   0.97136   0.20016
C          C       0.89182   0.28027   0.02708   0.19848
C          C       0.10809   0.72014   0.97098   0.18953
C          C       0.25402   0.39989   0.52406  -0.26025
C          C       0.74562   0.60045   0.47471  -0.25740
C          C       0.59987   0.85431   0.52397  -0.25736
C          C       0.39948   0.14563   0.47598  -0.26128
C          C       0.14548   0.74605   0.52333  -0.26028
C          C       0.85379   0.25420   0.47460  -0.25589
C          C       0.74576   0.60045   0.02344  -0.26248
C          C       0.25392   0.39996   0.97488  -0.26062
C          C       0.40004   0.14605   0.02485  -0.25977
C          C       0.59984   0.85422   0.97505  -0.26423
C          C       0.85402   0.25429   0.02376  -0.26232
C          C       0.14585   0.74622   0.97452  -0.25835
C          C       0.23475   0.39615   0.45691  -0.13575
C          C       0.76477   0.60412   0.54200  -0.13612
C          C       0.60354   0.83888   0.45665  -0.13645
C          C       0.39565   0.16110   0.54311  -0.13636
C          C       0.16091   0.76536   0.45619  -0.13543
C          C       0.83828   0.23503   0.54189  -0.13677
C          C       0.76496   0.60425   0.95623  -0.13321
C          C       0.23471   0.39621   0.04213  -0.13571
C          C       0.39624   0.16149   0.95759  -0.13531
C          C       0.60352   0.83883   0.04244  -0.13129
C          C       0.83845   0.23507   0.95658  -0.13268
C          C       0.16126   0.76549   0.04174  -0.13573
C          C       0.24044   0.38002   0.39172   0.08178
C          C       0.75909   0.62031   0.60710   0.07919
C          C       0.61970   0.86082   0.39165   0.08001
C          C       0.37952   0.13924   0.60824   0.07904
C          C       0.13901   0.75962   0.39113   0.07760
C          C       0.86010   0.24073   0.60706   0.07988
C          C       0.75919   0.62041   0.89123   0.07852
C          C       0.24042   0.38009   0.10731   0.08118
C          C       0.37993   0.13959   0.89260   0.08233
C          C       0.61964   0.86077   0.10746   0.07609
C          C       0.86022   0.24076   0.89134   0.07637
C          C       0.13937   0.75975   0.10681   0.08122
C          C       0.26571   0.36717   0.39674  -0.15624
C          C       0.73380   0.63314   0.60200  -0.15550
C          C       0.63253   0.89893   0.39680  -0.15586
C          C       0.36670   0.10112   0.60319  -0.15354
C          C       0.10091   0.73429   0.39626  -0.15260
C          C       0.89822   0.26600   0.60196  -0.15661
C          C       0.73385   0.63319   0.89638  -0.15535
C          C       0.26572   0.36727   0.10214  -0.15676
C          C       0.36699   0.10145   0.89792  -0.15671
C          C       0.63244   0.89888   0.10221  -0.15345
C          C       0.89835   0.26606   0.89628  -0.15340
C          C       0.10126   0.73444   0.10159  -0.15786
C          C       0.28555   0.37149   0.46323  -0.25113
C          C       0.71404   0.62883   0.53542  -0.25183
C          C       0.62825   0.91436   0.46345  -0.25150
C          C       0.37112   0.08565   0.53673  -0.25783
C          C       0.08549   0.71440   0.46276  -0.25707
C          C       0.91372   0.28573   0.53538  -0.24932
C          C       0.71406   0.62879   0.96296  -0.25399
C          C       0.28550   0.37159   0.03556  -0.25349
C          C       0.37138   0.08602   0.96448  -0.25160
C          C       0.62817   0.91426   0.03548  -0.25599
C          C       0.91391   0.28585   0.96280  -0.25523
C          C       0.08586   0.71460   0.03505  -0.24943
C          C       0.22134   0.37751   0.31920   0.06784
C          C       0.77821   0.62287   0.67959   0.06945
C          C       0.62224   0.84428   0.31915   0.06685
C          C       0.37704   0.15584   0.68075   0.06939
C          C       0.15558   0.77875   0.31864   0.06988
C          C       0.84356   0.22164   0.67961   0.06786
C          C       0.77828   0.62295   0.81875   0.06853
C          C       0.22135   0.37755   0.17991   0.06861
C          C       0.37729   0.15606   0.82000   0.06621
C          C       0.62221   0.84427   0.18001   0.06828
C          C       0.84360   0.22163   0.81886   0.06879
C          C       0.15582   0.77882   0.17942   0.06778
C          C       0.23859   0.37928   0.24955  -0.21003
C          C       0.76098   0.62116   0.74920  -0.20981
C          C       0.62047   0.85980   0.24959  -0.20805
C          C       0.37890   0.14043   0.75041  -0.20888
C          C       0.14020   0.76152   0.24895  -0.20966
C          C       0.85906   0.23891   0.74923  -0.20852
C          C       0.18642   0.37453   0.31817  -0.22503
C          C       0.81313   0.62586   0.68064  -0.22421
C          C       0.62522   0.81234   0.31812  -0.22122
C          C       0.37404   0.18776   0.68169  -0.22468
C          C       0.18748   0.81368   0.31776  -0.22365
C          C       0.81166   0.18670   0.68073  -0.22158
C          C       0.81318   0.62591   0.81767  -0.22415
C          C       0.18643   0.37455   0.18109  -0.22489
C          C       0.37433   0.18801   0.81875  -0.22328
C          C       0.62519   0.81234   0.18112  -0.22283
C          C       0.81169   0.18669   0.81780  -0.22244
C          C       0.18775   0.81375   0.18070  -0.22335
C          C       0.16850   0.37347   0.24964   0.07243
C          C       0.83110   0.62695   0.74915   0.07054
C          C       0.62626   0.79547   0.24961   0.06781
C          C       0.37310   0.20473   0.75013   0.07066
C          C       0.20445   0.83164   0.24935   0.06946
C          C       0.79485   0.16874   0.74927   0.06647
C          C       0.13222   0.37185   0.24960   0.11984
C          C       0.86739   0.62853   0.74905   0.12055
C          C       0.62785   0.76078   0.24951   0.12291
C          C       0.37148   0.23940   0.74982   0.12151
C          C       0.23912   0.86793   0.24974   0.12233
C          C       0.76019   0.13242   0.74915   0.12469
C          C       0.11454   0.37154   0.18099  -0.19470
C          C       0.88521   0.62882   0.81744  -0.19540
C          C       0.62818   0.74343   0.18088  -0.19627
C          C       0.37115   0.25695   0.81815  -0.19613
C          C       0.25662   0.88592   0.18147  -0.19651
C          C       0.74268   0.11460   0.81755  -0.19682
C          C       0.88508   0.62883   0.68046  -0.19371
C          C       0.11441   0.37156   0.31803  -0.19574
C          C       0.37119   0.25672   0.68111  -0.19628
C          C       0.62816   0.74325   0.31789  -0.19559
C          C       0.74280   0.11475   0.68054  -0.19661
C          C       0.25648   0.88541   0.31850  -0.19508
C          C       0.08121   0.37132   0.18057  -0.24795
C          C       0.91856   0.62901   0.81746  -0.24820
C          C       0.62850   0.71035   0.18039  -0.24517
C          C       0.37097   0.29011   0.81805  -0.24269
C          C       0.28980   0.91922   0.18170  -0.24523
C          C       0.70943   0.08135   0.81758  -0.24552
C          C       0.91842   0.62902   0.68003  -0.24983
C          C       0.08107   0.37135   0.31808  -0.24749
C          C       0.37100   0.28986   0.68053  -0.24345
C          C       0.62848   0.71016   0.31787  -0.24565
C          C       0.70956   0.08150   0.68009  -0.24568
C          C       0.28963   0.91872   0.31921  -0.24752
C          C       0.06412   0.37138   0.24921   0.23725
C          C       0.93555   0.62896   0.74865   0.23813
C          C       0.62854   0.69322   0.24899   0.23225
C          C       0.37106   0.30706   0.74912   0.22882
C          C       0.30681   0.93595   0.25070   0.23405
C          C       0.69233   0.06449   0.74873   0.23270
C          C       0.37149   0.34280   0.74853   0.43647
C          C       0.62840   0.65758   0.24857   0.43511
C          C       0.65643   0.02930   0.74844   0.43545
C          C       0.34260   0.97122   0.25132   0.43527
C          C       0.97093   0.62858   0.74842   0.43318
C          C       0.02875   0.37170   0.24864   0.43271
C          C       0.35917   0.50866   0.74981   0.45524
C          C       0.64077   0.49178   0.24994   0.45249
C          C       0.49146   0.85080   0.74982   0.45442
C          C       0.50831   0.14923   0.24992   0.45218
C          C       0.14912   0.64084   0.74987   0.45326
C          C       0.85031   0.35925   0.24991   0.45432
C          C       0.35428   0.54148   0.74957   0.17986
C          C       0.64550   0.45891   0.24985   0.18336
C          C       0.45855   0.81320   0.74955   0.17868
C          C       0.54107   0.18693   0.24975   0.17903
C          C       0.18677   0.64569   0.74994   0.17963
C          C       0.81260   0.35430   0.24991   0.18081
C          C       0.68102   0.46351   0.24684  -0.22131
C          C       0.46315   0.78227   0.75220  -0.22018
C          C       0.53627   0.21775   0.24722  -0.21846
C          C       0.21760   0.68127   0.75308  -0.22059
C          C       0.78171   0.31875   0.24709  -0.22127
C          C       0.31871   0.53679   0.74651  -0.22159
C          C       0.68582   0.43299   0.24653  -0.22447
C          C       0.43265   0.74693   0.75199  -0.21839
C          C       0.56667   0.25317   0.24698  -0.22698
C          C       0.25298   0.68622   0.75348  -0.22121
C          C       0.74635   0.31390   0.24681  -0.22367
C          C       0.31378   0.56724   0.74602  -0.21574
C          C       0.34398   0.60352   0.74926   0.15163
C          C       0.65552   0.39677   0.24974   0.16790
C          C       0.39643   0.74099   0.74851   0.15882
C          C       0.60296   0.25927   0.24972   0.17031
C          C       0.25903   0.65601   0.75012   0.15919
C          C       0.74036   0.34416   0.24983   0.16798
C          C       0.37952   0.60767   0.75249  -0.22307
C          C       0.62001   0.39272   0.25290  -0.23197
C          C       0.60719   0.22791   0.25239  -0.23441
C          C       0.39238   0.77247   0.74568  -0.23023
C          C       0.77180   0.37969   0.25277  -0.23271
C          C       0.22765   0.62045   0.74644  -0.22579
C          C       0.38471   0.57732   0.75232  -0.21034
C          C       0.61496   0.42315   0.25270  -0.21018
C          C       0.57690   0.19235   0.25219  -0.20660
C          C       0.42280   0.80796   0.74645  -0.20769
C          C       0.80729   0.38479   0.25258  -0.20872
C          C       0.19212   0.61525   0.74669  -0.20884
C          C       0.33845   0.63591   0.74925   0.05323
C          C       0.66097   0.36434   0.24979   0.02851
C          C       0.36405   0.70309   0.74840   0.04523
C          C       0.63531   0.29719   0.24978   0.02727
C          C       0.29692   0.66154   0.75001   0.04391
C          C       0.70247   0.33869   0.24986   0.02844
C          C       0.30289   0.63140   0.75087  -0.19286
C          C       0.69653   0.36884   0.24988  -0.16803
C          C       0.36857   0.67203   0.74767  -0.19308
C          C       0.63080   0.32825   0.24971  -0.16742
C          C       0.32795   0.69712   0.74912  -0.17869
C          C       0.67140   0.30314   0.24987  -0.16817
H          H       0.45040   0.43425   0.48810   0.18233
H          H       0.54916   0.56600   0.51051   0.18332
H          H       0.56584   0.01648   0.48837   0.18157
H          H       0.43422   0.98384   0.51121   0.18178
H          H       0.98312   0.54924   0.48870   0.18518
H          H       0.01645   0.45070   0.51055   0.18497
H          H       0.54927   0.56600   0.98848   0.18292
H          H       0.45036   0.43432   0.01133   0.18343
H          H       0.43411   0.98387   0.98769   0.18151
H          H       0.56568   0.01637   0.01100   0.18182
H          H       0.01637   0.45063   0.98845   0.18493
H          H       0.98322   0.54928   0.01057   0.18521
H          H       0.49705   0.53796   0.60597   0.18360
H          H       0.50251   0.46230   0.39260   0.18536
H          H       0.46225   0.95975   0.60669   0.18433
H          H       0.53779   0.04057   0.39287   0.18474
H          H       0.04054   0.50284   0.60601   0.18598
H          H       0.95904   0.49711   0.39323   0.18548
H          H       0.50249   0.46238   0.10675   0.18382
H          H       0.49715   0.53793   0.89302   0.18561
H          H       0.53760   0.04043   0.10641   0.18381
H          H       0.46219   0.95982   0.89225   0.18384
H          H       0.95916   0.49719   0.10603   0.18492
H          H       0.04043   0.50275   0.89294   0.18504
H          H       0.24998   0.41283   0.57434   0.18794
H          H       0.74968   0.58750   0.42448   0.18710
H          H       0.58694   0.83730   0.57419   0.18733
H          H       0.41243   0.16261   0.42574   0.18967
H          H       0.16250   0.75010   0.57352   0.18890
H          H       0.83681   0.25013   0.42434   0.18665
H          H       0.74982   0.58752   0.07368   0.18840
H          H       0.24983   0.41290   0.92468   0.18817
H          H       0.41311   0.16313   0.07492   0.18756
H          H       0.58693   0.83717   0.92487   0.18883
H          H       0.83708   0.25024   0.07410   0.18843
H          H       0.16290   0.75031   0.92436   0.18710
H          H       0.21583   0.40697   0.45402   0.13894
H          H       0.78362   0.59323   0.54511   0.13928
H          H       0.59267   0.80914   0.45345   0.13973
H          H       0.40641   0.19084   0.54603   0.13962
H          H       0.19063   0.78434   0.45320   0.13940
H          H       0.80854   0.21615   0.54484   0.13949
H          H       0.78389   0.59344   0.95310   0.13872
H          H       0.21578   0.40702   0.04511   0.13976
H          H       0.40714   0.19124   0.95446   0.13923
H          H       0.59268   0.80909   0.04570   0.13813
H          H       0.80870   0.21616   0.95374   0.13877
H          H       0.19099   0.78446   0.04481   0.13936
H          H       0.26965   0.35345   0.34772   0.14633
H          H       0.72979   0.64683   0.65101   0.14623
H          H       0.64618   0.91665   0.34780   0.14629
H          H       0.35296   0.08344   0.65218   0.14653
H          H       0.08320   0.73034   0.34731   0.14630
H          H       0.91588   0.26999   0.65101   0.14646
H          H       0.72981   0.64688   0.84742   0.14652
H          H       0.26972   0.35356   0.15112   0.14671
H          H       0.35314   0.08370   0.84907   0.14596
H          H       0.64607   0.91663   0.15118   0.14626
H          H       0.91597   0.27005   0.84717   0.14633
H          H       0.08352   0.73045   0.15050   0.14665
H          H       0.30563   0.36215   0.46671   0.18640
H          H       0.69393   0.63814   0.53190   0.18663
H          H       0.63755   0.94377   0.46719   0.18684
H          H       0.36183   0.05623   0.53318   0.18818
H          H       0.05608   0.69427   0.46634   0.18768
H          H       0.94314   0.30581   0.53190   0.18610
H          H       0.69391   0.63805   0.96667   0.18739
H          H       0.30559   0.36227   0.03208   0.18749
H          H       0.36195   0.05658   0.96808   0.18759
H          H       0.63745   0.94367   0.03177   0.18798
H          H       0.94334   0.30594   0.96622   0.18756
H          H       0.05646   0.69447   0.03147   0.18646
H          H       0.26663   0.38375   0.24958   0.14390
H          H       0.73294   0.61669   0.74925   0.14390
H          H       0.61600   0.88337   0.24963   0.14389
H          H       0.38338   0.11686   0.75044   0.14399
H          H       0.11666   0.73346   0.24884   0.14374
H          H       0.88260   0.26697   0.74922   0.14355
H          H       0.17303   0.37273   0.37258   0.13899
H          H       0.82650   0.62765   0.62620   0.13830
H          H       0.62703   0.80077   0.37256   0.13756
H          H       0.37213   0.19925   0.62723   0.13925
H          H       0.19897   0.82706   0.37224   0.13840
H          H       0.80007   0.17330   0.62631   0.13795
H          H       0.82656   0.62769   0.87210   0.13909
H          H       0.17303   0.37277   0.12670   0.13860
H          H       0.37267   0.19975   0.87310   0.13844
H          H       0.62700   0.80077   0.12670   0.13910
H          H       0.80009   0.17329   0.87221   0.13884
H          H       0.19948   0.82716   0.12637   0.13849
H          H       0.12702   0.37166   0.12639   0.16159
H          H       0.87283   0.62871   0.87219   0.16153
H          H       0.62799   0.75579   0.12631   0.16181
H          H       0.37123   0.24468   0.87292   0.16191
H          H       0.24431   0.87371   0.12665   0.16189
H          H       0.75502   0.12693   0.87228   0.16191
H          H       0.87259   0.62872   0.62586   0.16161
H          H       0.12681   0.37168   0.37276   0.16183
H          H       0.37132   0.24431   0.62656   0.16169
H          H       0.62797   0.75548   0.37264   0.16205
H          H       0.75523   0.12719   0.62594   0.16206
H          H       0.24409   0.87277   0.37299   0.16205
H          H       0.06791   0.37126   0.12705   0.18613
H          H       0.93192   0.62906   0.87090   0.18636
H          H       0.62857   0.69715   0.12682   0.18558
H          H       0.37092   0.30350   0.87137   0.18433
H          H       0.30317   0.93276   0.12842   0.18568
H          H       0.69610   0.06797   0.87100   0.18581
H          H       0.93167   0.62906   0.62644   0.18675
H          H       0.06768   0.37131   0.37148   0.18619
H          H       0.37096   0.30306   0.62694   0.18562
H          H       0.62854   0.69683   0.37128   0.18568
H          H       0.69632   0.06823   0.62654   0.18594
H          H       0.30287   0.93186   0.37285   0.18633
H          H       0.70464   0.49147   0.24459   0.17592
H          H       0.49111   0.78661   0.75461   0.17543
H          H       0.50826   0.21328   0.24533   0.17431
H          H       0.21315   0.70483   0.75538   0.17518
H          H       0.78605   0.29513   0.24498   0.17578
H          H       0.29512   0.50880   0.74431   0.17619
H          H       0.71387   0.43769   0.24357   0.17847
H          H       0.43736   0.72358   0.75487   0.17399
H          H       0.56181   0.27645   0.24451   0.17951
H          H       0.27626   0.71432   0.75661   0.17747
H          H       0.72302   0.28581   0.24404   0.17807
H          H       0.28569   0.56245   0.74282   0.17321
H          H       0.40384   0.63514   0.75545   0.17305
H          H       0.59562   0.36530   0.25574   0.17843
H          H       0.63467   0.23109   0.25483   0.17864
H          H       0.36496   0.76942   0.74268   0.17780
H          H       0.76872   0.40406   0.25541   0.17873
H          H       0.23082   0.59616   0.74302   0.17357
H          H       0.41238   0.58088   0.75458   0.17713
H          H       0.58735   0.41974   0.25494   0.17672
H          H       0.58048   0.16826   0.25411   0.17607
H          H       0.41934   0.83214   0.74445   0.17613
H          H       0.83143   0.41244   0.25466   0.17652
H          H       0.16800   0.58760   0.74410   0.17678
H          H       0.27914   0.60361   0.75322   0.10385
H          H       0.72030   0.39664   0.24999   0.09112
H          H       0.39635   0.67606   0.74555   0.10362
H          H       0.60302   0.32425   0.24958   0.09079
H          H       0.32392   0.72089   0.74900   0.09337
H          H       0.67542   0.27936   0.24997   0.09184
