data_crystal
 
_cell_length_a    6
_cell_length_b    10
_cell_length_c    13
_cell_angle_alpha 60.000
_cell_angle_beta  90.000
_cell_angle_gamma 90.000
 
_symmetry_space_group_name_Hall 'P 1'
_symmetry_space_group_name_H-M  'P 1'
 
loop_
_symmetry_equiv_pos_as_xyz
 'x,y,z' 
 
loop_
_atom_site_label
_atom_site_type_symbol
_atom_site_fract_x
_atom_site_fract_y
_atom_site_fract_z
_atom_site_charge
C          C         0.0    0.0     0.0  0.00000

