# CIF file generated by openbabel 2.3.2, see http://openbabel.sf.net
data_I
_chemical_name_common ''
_cell_length_a 18.5968
_cell_length_b 18.5968
_cell_length_c 18.5968
_cell_angle_alpha 60
_cell_angle_beta 60
_cell_angle_gamma 60
_space_group_name_H-M_alt 'P 1'
_space_group_name_Hall 'P 1'
loop_
    _symmetry_equiv_pos_as_xyz
    'x,y,z'
loop_
    _atom_site_type_symbol
    _atom_site_label
    _atom_site_Cartn_x
    _atom_site_Cartn_y
    _atom_site_Cartn_z
      C   C1    10.50842    6.06707    8.02558
      C   C2    26.68525   15.40670    7.14368
      C   C3     8.07340    9.60309    3.03990
      C   C4    29.10527   11.87069   12.14435
      C   C5    12.36075    2.20322    3.03989
      C   C6    24.83292   19.27057   12.14437
      C   C7     6.23609    3.60044    1.06392
      C   C8    30.95759   17.87334   14.12034
      C   C9    13.57073    4.29899    3.03989
      C  C10    23.62295   17.17480   12.14437
      C  C11    10.50839    9.60310    3.03989
      C  C12    26.68528   11.87068   12.14437
      C  C13     5.02611    4.29903    3.03983
      C  C14    32.16756   17.17475   12.14443
      C  C15    12.36076    3.60040    1.06399
      C  C16    24.83292   17.87338   14.12026
      C  C17     9.29842    3.97132    8.04061
      C  C18    27.89526   17.50246    7.14364
      C  C19     8.08844    6.06707    8.04059
      C  C20    29.10525   15.40671    7.14366
      C  C21     9.29842    8.90453    1.06399
      C  C22    27.89526   12.56925   14.12026
      C  C23     6.23610    2.20327    3.03983
      C  C24    30.95758   19.27051   12.14443
      C  C25     9.29844    8.25146    7.95344
      C  C26    27.89524   13.22232    7.23082
      C  C27     9.29840   10.24906    5.12841
      C  C28    27.89528   11.22472   10.05585
      C  C29    11.02847    1.48666    1.05125
      C  C30    26.16521   19.98712   14.13300
      C  C31     7.56837    1.48668    1.05122
      C  C32    29.62530   19.98710   14.13303
      C  C33    13.52517    2.92813    5.12839
      C  C34    23.66851   18.54565   10.05586
      C  C35    11.79514    8.80761    1.05124
      C  C36    25.39854   12.66617   14.13302
      C  C37     5.07167    5.81114    1.05121
      C  C38    32.12200   15.66264   14.13305
      C  C39    13.52517    5.81110    1.05127
      C  C40    23.66850   15.66269   14.13299
      C  C41    11.79516    3.92699    7.95344
      C  C42    25.39852   17.54680    7.23082
      C  C43     6.80170    3.92699    7.95348
      C  C44    30.39198   17.54680    7.23077
      C  C45     6.80166    8.80757    1.05125
      C  C46    30.39201   12.66621   14.13300
      C  C47     5.07166    2.92818    5.12833
      C  C48    32.12202   18.54561   10.05592
      C  C49     9.29845    6.76334    8.03971
      C  C50    27.89523   14.71044    7.14454
      C  C51     9.29839    9.83436    3.69664
      C  C52    27.89529   11.63942   11.48762
      C  C53    11.95807    2.43806    1.72401
      C  C54    25.23560   19.03572   13.46025
      C  C55     6.63877    2.43810    1.72396
      C  C56    30.55491   19.03569   13.46029
      C  C57    13.16602    3.13548    3.69661
      C  C58    24.02765   18.33830   11.48765
      C  C59    10.50635    9.13698    1.72401
      C  C60    26.68731   12.33680   13.46025
      C  C61     5.43082    4.53036    1.72396
      C  C62    31.76286   16.94343   13.46029
      C  C63    13.16604    4.53031    1.72402
      C  C64    24.02764   16.94347   13.46023
      C  C65    10.50640    4.67107    8.03971
      C  C66    26.68727   16.80272    7.14454
      C  C67     8.09049    4.67107    8.03976
      C  C68    29.10319   16.80272    7.14450
      C  C69     8.09042    9.13694    1.72402
      C  C70    29.10326   12.33684   13.46023
      C  C71     5.43082    3.13553    3.69655
      C  C72    31.76286   18.33826   11.48771
      H   H1    11.45468    6.61334    8.01607
      H   H2    25.73900   14.86044    7.16818
      H   H3     7.14218    9.76207    3.56309
      H   H4    30.05150   11.71171   11.62116
      H   H5    12.02530    1.30428    3.56306
      H   H6    25.16838   20.16950   11.62119
      H   H7     6.57154    3.79405    0.04200
      H   H8    30.62214   17.67974   15.14225
      H   H9    14.18152    5.03897    3.56309
      H  H10    23.01216   16.43481   11.62116
      H  H11    11.45463    9.76208    3.56306
      H  H12    25.73905   11.71170   11.62119
      H  H13     4.41534    5.03897    3.56309
      H  H14    32.77834   16.43481   11.62116
      H  H15    12.02532    3.79407    0.04206
      H  H16    25.16836   17.67971   15.14219
      H  H17     9.29840    2.87872    8.01607
      H  H18    27.89528   18.59506    7.16818
      H  H19     7.14221    6.61331    8.01609
      H  H20    30.05147   14.86047    7.16817
      H  H21     9.29844    8.51720    0.04206
      H  H22    27.89524   12.95658   15.14219
      H  H23     6.57152    1.30434    3.56306
      H  H24    30.62216   20.16944   11.62119
      O   O1    10.43600    8.82476    7.90383
      O   O2    26.75768   12.64902    7.28043
      O   O3    10.43600   11.08039    9.49880
      O   O4    26.75768   10.39339    5.68546
      O   O5    17.22326    4.89739   13.45787
      O   O6    19.95541   16.57640    1.72639
      O   O7    17.23827    7.15312   15.05291
      O   O8    19.95541   14.32066    0.13134
      O   O9    14.21889    3.84116    5.68541
      O  O10    22.97478   17.63262    9.49885
      O  O11    12.86034    8.99364    1.72642
      O  O12    24.33334   12.48014   13.45784
      O  O13    22.97479    6.64064    1.72634
      O  O14    14.21889   14.83314   13.45791
      O  O15    14.81388   10.12157    0.13125
      O  O16    22.37980   11.35222   15.05300
      O  O17    16.17242    2.71322    7.28044
      O  O18    21.02125   18.76056    7.90381
      O  O19    12.86034   16.84822    7.28044
      O  O20    24.33334    4.62557    7.90381
      O  O21    21.02125    7.76847    0.13124
      O  O22    16.17242   13.70531   15.05302
      O  O23    14.81386   17.97618    5.68530
      O  O24    22.37982    3.49760    9.49895
      O  O25    10.43596   10.39336    5.68546
      O  O26    26.75772   11.08042    9.49880
      O  O27    10.43598   12.64903    7.28046
      O  O28    26.75770    8.82475    7.90380
      O  O29    17.23830   14.32066    0.13125
      O  O30    19.95538    7.15312   15.05300
      O  O31    17.23830   16.57648    1.72636
      O  O32    19.95538    4.89730   13.45790
      O  O33    14.21888    6.64057    1.72642
      O  O34    22.97479   14.83321   13.45784
      O  O35    12.86040    4.62554    7.90383
      O  O36    24.33328   16.84824    7.28043
      O  O37    22.97478    3.84121    5.68532
      O  O38    14.21890   17.63257    9.49894
      O  O39    14.81388    3.49764    9.49885
      O  O40    22.37980   17.97614    5.68541
      O  O41    16.17250    7.76838    0.13124
      O  O42    21.02118   13.70541   15.05302
      O  O43    12.86040   12.48013   13.45787
      O  O44    24.33328    8.99365    1.72639
      O  O45    21.02118    2.71319    7.28035
      O  O46    16.17250   18.76059    7.90391
      O  O47    14.81388   11.35230   15.05293
      O  O48    22.37980   10.12148    0.13133
     Cu  Cu1    10.50965   10.73689    7.59213
     Cu  Cu2    26.68403   10.73689    7.59213
     Cu  Cu3    18.59680    6.06776   14.19527
     Cu  Cu4    18.59688   15.40602    0.98898
     Cu  Cu5    14.55325    3.73322    7.59214
     Cu  Cu6    22.64042   17.74057    7.59211
     Cu  Cu7    14.55325    8.40233    0.98903
     Cu  Cu8    22.64042   13.07146   14.19523
     Cu  Cu9    14.55325   13.07143   14.19526
     Cu  Cu10    22.64043    8.40235    0.98900
     Cu  Cu11    14.55325   17.74055    7.59214
     Cu  Cu12    22.64041    3.73324    7.59211
