data_DABQ-TFP-COF
_audit_creation_date              0000-00-00
_audit_creation_method            'LanYouShi'
_symmetry_space_group_name_H-M    'P1'
_cell_length_a                    23.4486008
_cell_length_b                    23.4486008
_cell_length_c                    3.9693000
_cell_angle_alpha                 90.0000000
_cell_angle_beta                  90.0000000
_cell_angle_gamma                 120.0000000
loop_
_atom_site_label
_atom_site_type_symbol
_atom_site_fract_x
_atom_site_fract_y
_atom_site_fract_z
_atom_site_U_iso_or_equiv
_atom_site_adp_type
_atom_site_occupancy
       xx1          C  0.9738399  0.4322800  0.5000000    0.00000       Uiso       1.00
       xx2          C  0.4732100  0.9301900  0.5000000    0.00000       Uiso       1.00
       xx3          N  0.5491900  0.1399300  0.5000000    0.00000       Uiso       1.00
       xx4          C  0.0422200  0.4736700  0.5000000    0.00000       Uiso       1.00
       xx5          O  0.0760800  0.4479400  0.5000000    0.00000       Uiso       1.00
       xx6          C  0.8066100  0.4234200  0.5000000    0.00000       Uiso       1.00
       xx7          C  0.2596000  0.6212000  0.5000000    0.00000       Uiso       1.00
       xx8          C  0.3057700  0.5945100  0.5000000    0.00000       Uiso       1.00
       xx9          O  0.2526500  0.7175900  0.5000000    0.00000       Uiso       1.00
      xx10          H  0.5109800  0.1500200  0.5000000    0.00000       Uiso       1.00
      xx11          H  0.8195400  0.4740000  0.5000000    0.00000       Uiso       1.00
      xx12          H  0.9543099  0.3794700  0.5000000    0.00000       Uiso       1.00
      xx13          C  0.5677200  0.5415600  0.5000000    0.00000       Uiso       1.00
      xx14          C  0.0698100  0.5430200  0.5000000    0.00000       Uiso       1.00
      xx15          N  0.8600700  0.4092600  0.5000000    0.00000       Uiso       1.00
      xx16          C  0.5263300  0.5685500  0.5000000    0.00000       Uiso       1.00
      xx17          O  0.5520600  0.6281400  0.5000000    0.00000       Uiso       1.00
      xx18          C  0.5765800  0.3831900  0.5000000    0.00000       Uiso       1.00
      xx19          C  0.3788000  0.6384000  0.5000000    0.00000       Uiso       1.00
      xx20          C  0.4054900  0.7112600  0.5000000    0.00000       Uiso       1.00
      xx21          O  0.2824100  0.5350600  0.5000000    0.00000       Uiso       1.00
      xx22          H  0.8499800  0.3609600  0.5000000    0.00000       Uiso       1.00
      xx23          H  0.5260000  0.3455400  0.5000000    0.00000       Uiso       1.00
      xx24          H  0.6205300  0.5748400  0.5000000    0.00000       Uiso       1.00
      xx25          C  0.4584400  0.0261600  0.5000000    0.00000       Uiso       1.00
      xx26          C  0.4569800  0.5267900  0.5000000    0.00000       Uiso       1.00
      xx27          N  0.5907400  0.4508100  0.5000000    0.00000       Uiso       1.00
      xx28          C  0.4314500  0.9577800  0.5000000    0.00000       Uiso       1.00
      xx29          O  0.3718600  0.9239200  0.5000000    0.00000       Uiso       1.00
      xx30          C  0.6168100  0.1933900  0.5000000    0.00000       Uiso       1.00
      xx31          C  0.3616000  0.7404000  0.5000000    0.00000       Uiso       1.00
      xx32          C  0.2887400  0.6942300  0.5000000    0.00000       Uiso       1.00
      xx33          O  0.4649400  0.7473500  0.5000000    0.00000       Uiso       1.00
      xx34          H  0.6390400  0.4890200  0.5000000    0.00000       Uiso       1.00
      xx35          H  0.6544600  0.1804600  0.5000000    0.00000       Uiso       1.00
      xx36          H  0.4251600  0.0456900  0.5000000    0.00000       Uiso       1.00
      xx37          C  0.0261600  0.5677200  0.5000000    0.00000       Uiso       1.00
      xx38          C  0.5267900  0.0698100  0.5000000    0.00000       Uiso       1.00
      xx39          N  0.4508100  0.8600700  0.5000000    0.00000       Uiso       1.00
      xx40          C  0.9577800  0.5263300  0.5000000    0.00000       Uiso       1.00
      xx41          O  0.9239200  0.5520600  0.5000000    0.00000       Uiso       1.00
      xx42          C  0.1933900  0.5765800  0.5000000    0.00000       Uiso       1.00
      xx43          C  0.7404000  0.3788000  0.5000000    0.00000       Uiso       1.00
      xx44          C  0.6942300  0.4054900  0.5000000    0.00000       Uiso       1.00
      xx45          O  0.7473500  0.2824100  0.5000000    0.00000       Uiso       1.00
      xx46          H  0.4890200  0.8499799  0.5000000    0.00000       Uiso       1.00
      xx47          H  0.1804600  0.5260000  0.5000000    0.00000       Uiso       1.00
      xx48          H  0.0456900  0.6205300  0.5000000    0.00000       Uiso       1.00
      xx49          C  0.4322800  0.4584400  0.5000000    0.00000       Uiso       1.00
      xx50          C  0.9301900  0.4569800  0.5000000    0.00000       Uiso       1.00
      xx51          N  0.1399300  0.5907400  0.5000000    0.00000       Uiso       1.00
      xx52          C  0.4736700  0.4314500  0.5000000    0.00000       Uiso       1.00
      xx53          O  0.4479400  0.3718600  0.5000000    0.00000       Uiso       1.00
      xx54          C  0.4234200  0.6168100  0.5000000    0.00000       Uiso       1.00
      xx55          C  0.6212000  0.3616000  0.5000000    0.00000       Uiso       1.00
      xx56          C  0.5945100  0.2887400  0.5000000    0.00000       Uiso       1.00
      xx57          O  0.7175900  0.4649400  0.5000000    0.00000       Uiso       1.00
      xx58          H  0.1500200  0.6390400  0.5000000    0.00000       Uiso       1.00
      xx59          H  0.4740000  0.6544600  0.5000000    0.00000       Uiso       1.00
      xx60          H  0.3794700  0.4251600  0.5000000    0.00000       Uiso       1.00
      xx61          C  0.5415600  0.9738400  0.5000000    0.00000       Uiso       1.00
      xx62          C  0.5430200  0.4732100  0.5000000    0.00000       Uiso       1.00
      xx63          N  0.4092600  0.5491900  0.5000000    0.00000       Uiso       1.00
      xx64          C  0.5685500  0.0422200  0.5000000    0.00000       Uiso       1.00
      xx65          O  0.6281400  0.0760800  0.5000000    0.00000       Uiso       1.00
      xx66          C  0.3831900  0.8066100  0.5000000    0.00000       Uiso       1.00
      xx67          C  0.6384000  0.2596000  0.5000000    0.00000       Uiso       1.00
      xx68          C  0.7112600  0.3057700  0.5000000    0.00000       Uiso       1.00
      xx69          O  0.5350600  0.2526500  0.5000000    0.00000       Uiso       1.00
      xx70          H  0.3609600  0.5109800  0.5000000    0.00000       Uiso       1.00
      xx71          H  0.3455400  0.8195400  0.5000000    0.00000       Uiso       1.00
      xx72          H  0.5748400  0.9543100  0.5000000    0.00000       Uiso       1.00
