#======================================================================

# CRYSTAL DATA

#----------------------------------------------------------------------

data_VESTA_phase_1


_chemical_name_common                  'hkust-1                               '
_cell_length_a                         18.59684
_cell_length_b                         18.59684
_cell_length_c                         18.59684
_cell_angle_alpha                      60.00000
_cell_angle_beta                       60.00000
_cell_angle_gamma                      60.00000
_space_group_name_H-M_alt              'P 1'
_space_group_IT_number                 1

loop_
_space_group_symop_operation_xyz
   'x, y, z'

loop_
   _atom_site_label
   _atom_site_occupancy
   _atom_site_fract_x
   _atom_site_fract_y
   _atom_site_fract_z
   _atom_site_adp_type
   _atom_site_B_iso_or_equiv
   _atom_site_type_symbol
   C1         1.0     0.200527      0.200530      0.528546     Biso  1.000000 C
   C2         1.0     0.799802      0.799799      0.470466     Biso  1.000000 C
   C3         1.0     0.069260      0.529534      0.200201     Biso  1.000000 C
   C4         1.0     0.929933      0.470466      0.799799     Biso  1.000000 C
   C5         1.0     0.529536      0.070067      0.200200     Biso  1.000000 C
   C6         1.0     0.470464      0.929933      0.799800     Biso  1.000000 C
   C7         1.0     0.200197      0.200200      0.070067     Biso  1.000000 C
   C8         1.0     0.799803      0.799800      0.929933     Biso  1.000000 C
   C9         1.0     0.529535      0.200196      0.200200     Biso  1.000000 C
   C10        1.0     0.470465      0.799804      0.799800     Biso  1.000000 C
   C11        1.0     0.200196      0.529535      0.200200     Biso  1.000000 C
   C12        1.0     0.799804      0.470465      0.799800     Biso  1.000000 C
   C13        1.0     0.070069      0.200200      0.200196     Biso  1.000000 C
   C14        1.0     0.929931      0.799800      0.799804     Biso  1.000000 C
   C15        1.0     0.529536      0.200196      0.070072     Biso  1.000000 C
   C16        1.0     0.470464      0.799804      0.929928     Biso  1.000000 C
   C17        1.0     0.200196      0.070072      0.529536     Biso  1.000000 C
   C18        1.0     0.799804      0.929928      0.470464     Biso  1.000000 C
   C19        1.0     0.070069      0.200200      0.529535     Biso  1.000000 C
   C20        1.0     0.929932      0.799800      0.470465     Biso  1.000000 C
   C21        1.0     0.200196      0.529536      0.070072     Biso  1.000000 C
   C22        1.0     0.799804      0.470464      0.929928     Biso  1.000000 C
   C23        1.0     0.200197      0.070072      0.200196     Biso  1.000000 C
   C24        1.0     0.799803      0.929928      0.799804     Biso  1.000000 C
   C25        1.0     0.069231      0.337745      0.523795     Biso  1.000000 C
   C26        1.0     0.930769      0.662255      0.476205     Biso  1.000000 C
   C27        1.0     0.069229      0.523795      0.337745     Biso  1.000000 C
   C28        1.0     0.930771      0.476205      0.662255     Biso  1.000000 C
   C29        1.0     0.523797      0.069231      0.069233     Biso  1.000000 C
   C30        1.0     0.476203      0.930769      0.930767     Biso  1.000000 C
   C31        1.0     0.337739      0.069233      0.069231     Biso  1.000000 C
   C32        1.0     0.662261      0.930767      0.930769     Biso  1.000000 C
   C33        1.0     0.523796      0.069230      0.337744     Biso  1.000000 C
   C34        1.0     0.476204      0.930770      0.662256     Biso  1.000000 C
   C35        1.0     0.337740      0.523798      0.069232     Biso  1.000000 C
   C36        1.0     0.662260      0.476202      0.930768     Biso  1.000000 C
   C37        1.0     0.069230      0.337744      0.069230     Biso  1.000000 C
   C38        1.0     0.930770      0.662256      0.930770     Biso  1.000000 C
   C39        1.0     0.523796      0.337740      0.069234     Biso  1.000000 C
   C40        1.0     0.476203      0.662260      0.930766     Biso  1.000000 C
   C41        1.0     0.337742      0.069233      0.523795     Biso  1.000000 C
   C42        1.0     0.662258      0.930767      0.476205     Biso  1.000000 C
   C43        1.0     0.069230      0.069232      0.523798     Biso  1.000000 C
   C44        1.0     0.930770      0.930768      0.476202     Biso  1.000000 C
   C45        1.0     0.069229      0.523795      0.069233     Biso  1.000000 C
   C46        1.0     0.930771      0.476205      0.930767     Biso  1.000000 C
   C47        1.0     0.069229      0.069234      0.337740     Biso  1.000000 C
   C48        1.0     0.930771      0.930766      0.662260     Biso  1.000000 C
   C49        1.0     0.113537      0.243452      0.529477     Biso  1.000000 C
   C50        1.0     0.886463      0.756548      0.470523     Biso  1.000000 C
   C51        1.0     0.113534      0.529477      0.243452     Biso  1.000000 C
   C52        1.0     0.886466      0.470523      0.756548     Biso  1.000000 C
   C53        1.0     0.529479      0.113536      0.113539     Biso  1.000000 C
   C54        1.0     0.470521      0.886464      0.886461     Biso  1.000000 C
   C55        1.0     0.243446      0.113539      0.113536     Biso  1.000000 C
   C56        1.0     0.756554      0.886461      0.886464     Biso  1.000000 C
   C57        1.0     0.529478      0.113536      0.243450     Biso  1.000000 C
   C58        1.0     0.470522      0.886464      0.756550     Biso  1.000000 C
   C59        1.0     0.243444      0.529480      0.113539     Biso  1.000000 C
   C60        1.0     0.756555      0.470520      0.886461     Biso  1.000000 C
   C61        1.0     0.113536      0.243450      0.113536     Biso  1.000000 C
   C62        1.0     0.886464      0.756550      0.886464     Biso  1.000000 C
   C63        1.0     0.529479      0.243446      0.113540     Biso  1.000000 C
   C64        1.0     0.470521      0.756554      0.886460     Biso  1.000000 C
   C65        1.0     0.243448      0.113540      0.529477     Biso  1.000000 C
   C66        1.0     0.756552      0.886460      0.470523     Biso  1.000000 C
   C67        1.0     0.113537      0.113539      0.529480     Biso  1.000000 C
   C68        1.0     0.886463      0.886461      0.470520     Biso  1.000000 C
   C69        1.0     0.113534      0.529477      0.113540     Biso  1.000000 C
   C70        1.0     0.886466      0.470523      0.886460     Biso  1.000000 C
   C71        1.0     0.113536      0.113540      0.243446     Biso  1.000000 C
   C72        1.0     0.886464      0.886460      0.756554     Biso  1.000000 C
   H1         1.0     0.234659      0.234657      0.527920     Biso  1.000000 H
   H2         1.0     0.765341      0.765343      0.472080     Biso  1.000000 H
   H3         1.0     0.002765      0.527920      0.234657     Biso  1.000000 H
   H4         1.0     0.997235      0.472080      0.765343     Biso  1.000000 H
   H5         1.0     0.527921      0.002766      0.234655     Biso  1.000000 H
   H6         1.0     0.472079      0.997234      0.765345     Biso  1.000000 H
   H7         1.0     0.234658      0.234655      0.002766     Biso  1.000000 H
   H8         1.0     0.765342      0.765345      0.997234     Biso  1.000000 H
   H9         1.0     0.527920      0.234657      0.234657     Biso  1.000000 H
   H10        1.0     0.472080      0.765343      0.765343     Biso  1.000000 H
   H11        1.0     0.234657      0.527921      0.234655     Biso  1.000000 H
   H12        1.0     0.765343      0.472079      0.765345     Biso  1.000000 H
   H13        1.0     0.002767      0.234657      0.234657     Biso  1.000000 H
   H14        1.0     0.997233      0.765343      0.765343     Biso  1.000000 H
   H15        1.0     0.527920      0.234655      0.002770     Biso  1.000000 H
   H16        1.0     0.472080      0.765345      0.997230     Biso  1.000000 H
   H17        1.0     0.234654      0.002770      0.527920     Biso  1.000000 H
   H18        1.0     0.765346      0.997230      0.472080     Biso  1.000000 H
   H19        1.0     0.002767      0.234655      0.527921     Biso  1.000000 H
   H20        1.0     0.997233      0.765345      0.472079     Biso  1.000000 H
   H21        1.0     0.234656      0.527920      0.002770     Biso  1.000000 H
   H22        1.0     0.765344      0.472080      0.997230     Biso  1.000000 H
   H23        1.0     0.234655      0.002770      0.234655     Biso  1.000000 H
   H24        1.0     0.765345      0.997230      0.765345     Biso  1.000000 H
   O1         1.0     0.113691      0.374431      0.520528     Biso  1.000000 O
   O2         1.0     0.886309      0.625569      0.479472     Biso  1.000000 O
   O3         1.0     0.008650      0.479472      0.625569     Biso  1.000000 O
   O4         1.0     0.991350      0.520528      0.374431     Biso  1.000000 O
   O5         1.0     0.478662      0.008650      0.886304     Biso  1.000000 O
   O6         1.0     0.520531      0.991350      0.113696     Biso  1.000000 O
   O7         1.0     0.374423      0.113696      0.991350     Biso  1.000000 O
   O8         1.0     0.625577      0.886304      0.008650     Biso  1.000000 O
   O9         1.0     0.520526      0.113693      0.374428     Biso  1.000000 O
   O10        1.0     0.479474      0.886307      0.625572     Biso  1.000000 O
   O11        1.0     0.374421      0.520527      0.113698     Biso  1.000000 O
   O12        1.0     0.625579      0.479473      0.886302     Biso  1.000000 O
   O13        1.0     0.991353      0.374428      0.113693     Biso  1.000000 O
   O14        1.0     0.008647      0.625572      0.886307     Biso  1.000000 O
   O15        1.0     0.479469      0.625579      0.008644     Biso  1.000000 O
   O16        1.0     0.520531      0.374421      0.991356     Biso  1.000000 O
   O17        1.0     0.625575      0.008643      0.479473     Biso  1.000000 O
   O18        1.0     0.374425      0.991357      0.520527     Biso  1.000000 O
   O19        1.0     0.008646      0.886302      0.479473     Biso  1.000000 O
   O20        1.0     0.991354      0.113698      0.520527     Biso  1.000000 O
   O21        1.0     0.886309      0.479473      0.008643     Biso  1.000000 O
   O22        1.0     0.113691      0.520527      0.991357     Biso  1.000000 O
   O23        1.0     0.113691      0.991356      0.374421     Biso  1.000000 O
   O24        1.0     0.886309      0.008644      0.625579     Biso  1.000000 O
   O25        1.0     0.113690      0.520526      0.374431     Biso  1.000000 O
   O26        1.0     0.886310      0.479474      0.625569     Biso  1.000000 O
   O27        1.0     0.008648      0.625569      0.479474     Biso  1.000000 O
   O28        1.0     0.991352      0.374431      0.520526     Biso  1.000000 O
   O29        1.0     0.479473      0.886306      0.008644     Biso  1.000000 O
   O30        1.0     0.520527      0.113694      0.991356     Biso  1.000000 O
   O31        1.0     0.374423      0.991356      0.113694     Biso  1.000000 O
   O32        1.0     0.625577      0.008644      0.886306     Biso  1.000000 O
   O33        1.0     0.520526      0.374422      0.113698     Biso  1.000000 O
   O34        1.0     0.479474      0.625578      0.886302     Biso  1.000000 O
   O35        1.0     0.374425      0.113696      0.520528     Biso  1.000000 O
   O36        1.0     0.625575      0.886304      0.479472     Biso  1.000000 O
   O37        1.0     0.991353      0.113698      0.374422     Biso  1.000000 O
   O38        1.0     0.008647      0.886302      0.625578     Biso  1.000000 O
   O39        1.0     0.479470      0.008649      0.625572     Biso  1.000000 O
   O40        1.0     0.520530      0.991351      0.374428     Biso  1.000000 O
   O41        1.0     0.625582      0.479467      0.008643     Biso  1.000000 O
   O42        1.0     0.374418      0.520533      0.991357     Biso  1.000000 O
   O43        1.0     0.008649      0.479472      0.886304     Biso  1.000000 O
   O44        1.0     0.991351      0.520528      0.113696     Biso  1.000000 O
   O45        1.0     0.886308      0.008643      0.479467     Biso  1.000000 O
   O46        1.0     0.113692      0.991357      0.520533     Biso  1.000000 O
   O47        1.0     0.113691      0.374428      0.991351     Biso  1.000000 O
   O48        1.0     0.886309      0.625572      0.008649     Biso  1.000000 O
   Cu1        1.0     0.065131      0.500000      0.500000     Biso  1.000000 Cu
   Cu2        1.0     0.934869      0.500000      0.500000     Biso  1.000000 Cu
   Cu3        1.0     0.499998      0.065132      0.934868     Biso  1.000000 Cu
   Cu4        1.0     0.500002      0.934868      0.065132     Biso  1.000000 Cu
   Cu5        1.0     0.499999      0.065133      0.500001     Biso  1.000000 Cu
   Cu6        1.0     0.500001      0.934867      0.499999     Biso  1.000000 Cu
   Cu7        1.0     0.499999      0.499999      0.065135     Biso  1.000000 Cu
   Cu8        1.0     0.500001      0.500001      0.934865     Biso  1.000000 Cu
   Cu9        1.0     0.065133      0.499999      0.934867     Biso  1.000000 Cu
   Cu10       1.0     0.934867      0.500001      0.065133     Biso  1.000000 Cu
   Cu11       1.0     0.065133      0.934865      0.500001     Biso  1.000000 Cu
   Cu12       1.0     0.934866      0.065135      0.499999     Biso  1.000000 Cu
