data_crystal
 
_cell_length_a    24.60790
_cell_length_b    24.51480
_cell_length_c    26.24880
_cell_angle_alpha 86.55150
_cell_angle_beta  56.40140
_cell_angle_gamma 60.23140
 
_symmetry_space_group_name_Hall 'P 1'
_symmetry_space_group_name_H-M  'P 1'
 
loop_
_symmetry_equiv_pos_as_xyz
 'x,y,z' 
 
loop_
_atom_site_label
_atom_site_type_symbol
_atom_site_fract_x
_atom_site_fract_y
_atom_site_fract_z
_atom_site_charge
Zn         Zn      0.03214   0.94006   0.86816   0.4736000000
Zn         Zn      0.91119   0.94101   0.01352   0.5113000000
Zn         Zn      0.95927   0.05735  -0.00645   0.5203000000
Zn         Zn      0.02538   0.96664  -0.00592   0.4591000000
O          O      -0.03701  -0.01757  -0.04050  -0.4650000000
O          O       0.76732   0.79229   0.85021  -0.5517000000
C          C       0.84652   0.74264   0.82815   0.1303000000
C          C       0.87612   0.77992   0.83704   0.0180000000
C          C       0.82256   0.84647   0.87350  -0.1521000000
C          C       0.84537   0.87896   0.89132  -0.0862000000
C          C       0.92245   0.84484   0.87190  -0.1170000000
C          C      -0.02258   0.77958   0.83258  -0.0781000000
C          C      -0.04591   0.74704   0.81530  -0.1931000000
C          C       0.94411   0.87904   0.89594   0.6959000000
O          O       0.91130   0.89162   0.95536  -0.4992000000
O          O      -0.00727   0.89206   0.85506  -0.4873000000
C          C       0.89104   0.70083   0.76128  -0.0101000000
C          C       0.88929   0.73050   0.71442  -0.1597000000
C          C       0.91638   0.69350   0.65757  -0.0698000000
C          C      -0.05506   0.62648   0.64805  -0.1295000000
C          C      -0.04777   0.59541   0.69266  -0.0589000000
C          C       0.92586   0.63258   0.74892  -0.1992000000
C          C      -0.03748   0.58820   0.59304   0.6212000000
O          O      -0.01018   0.59832   0.53862  -0.4317000000
O          O       0.94759   0.54366   0.60283  -0.4480000000
H          H       0.74473   0.77187   0.84448   0.3158000000
H          H       0.84149   0.71208   0.86214   0.1363000000
H          H       0.76226   0.87246   0.88890   0.1829000000
H          H       0.80308   0.93020   0.92113   0.1648000000
H          H       0.03799   0.75401   0.81601   0.1616000000
H          H      -0.00335   0.69599   0.78536   0.1602000000
H          H       0.86476   0.78322   0.72341   0.1782000000
H          H       0.91416   0.71664   0.62125   0.1716000000
H          H      -0.02332   0.54270   0.68376   0.1692000000
H          H       0.93094   0.60839   0.78371   0.1638000000
O          O       0.85619   0.36051   0.84092  -0.5542000000
C          C       0.85911   0.31401   0.80639   0.1296000000
C          C       0.90585   0.24767   0.81198   0.0415000000
C          C       0.93943   0.24173   0.84281  -0.1840000000
C          C      -0.02903   0.18373   0.85752  -0.0458000000
C          C       0.96966   0.13143   0.84052  -0.1752000000
C          C       0.94148   0.13541   0.80548  -0.0427000000
C          C       0.90933   0.19381   0.79129  -0.2254000000
C          C       0.99195   0.07414   0.86577   0.7227000000
O          O       0.98876   0.08510   0.91422  -0.5521000000
O          O       0.01238   0.02008   0.83731  -0.4919000000
C          C       0.89153   0.31991   0.73925  -0.0371000000
C          C      -0.02914   0.29708   0.69442  -0.1448000000
C          C      -0.00345   0.31336   0.63697  -0.0854000000
C          C      -0.05794   0.35293   0.62534  -0.1212000000
C          C       0.86374   0.37203   0.66788  -0.0778000000
C          C       0.83875   0.35496   0.72472  -0.1836000000
C          C      -0.03493   0.38064   0.57005   0.6892000000
O          O       0.02399   0.34220   0.51399  -0.4827000000
O          O       0.92240   0.44271   0.58448  -0.5200000000
H          H       0.84459   0.40018   0.82694   0.3173000000
H          H       0.79687   0.32867   0.83355   0.1388000000
H          H       0.93827   0.28356   0.85707   0.1845000000
H          H      -0.00530   0.17913   0.88375   0.1724000000
H          H       0.94366   0.09323   0.79058   0.1683000000
H          H       0.88613   0.19760   0.76503   0.1620000000
H          H       0.01227   0.26752   0.70493   0.1725000000
H          H       0.05816   0.29633   0.60195   0.1690000000
H          H       0.82256   0.40128   0.65714   0.1630000000
H          H       0.77776   0.37012   0.75824   0.1593000000
O          O       0.48957   0.62431   0.80251  -0.5558000000
C          C       0.48391   0.68379   0.78727   0.1295000000
C          C       0.40722   0.72505   0.79617   0.0161000000
C          C       0.35132   0.70923   0.82992  -0.1520000000
C          C       0.27527   0.75304   0.84879  -0.0881000000
C          C       0.25609   0.81227   0.83311  -0.1218000000
C          C       0.31326   0.82575   0.79468  -0.0811000000
C          C       0.38930   0.78184   0.77619  -0.1880000000
C          C       0.17111   0.86434   0.86465   0.7022000000
O          O       0.13136   0.89075   0.92368  -0.5333000000
O          O       0.14538   0.87788   0.83203  -0.4933000000
C          C       0.55732   0.66506   0.72110  -0.0135000000
C          C       0.58546   0.61798   0.67024  -0.1734000000
C          C       0.66026   0.59183   0.61254  -0.0618000000
C          C       0.70629   0.61309   0.60663  -0.1605000000
C          C       0.67556   0.66444   0.65539  -0.0453000000
C          C       0.60066   0.69072   0.71262  -0.2067000000
C          C       0.79192   0.57623   0.55197   0.7122000000
O          O       0.81683   0.54578   0.49882  -0.4959000000
O          O       0.83414   0.57775   0.56470  -0.5484000000
H          H       0.54207   0.59197   0.79046   0.3158000000
H          H       0.47912   0.71006   0.82460   0.1381000000
H          H       0.36729   0.66322   0.84263   0.1811000000
H          H       0.23073   0.74214   0.87686   0.1603000000
H          H       0.29826   0.87059   0.78028   0.1609000000
H          H       0.43395   0.79237   0.74712   0.1620000000
H          H       0.54927   0.60090   0.67663   0.1758000000
H          H       0.68371   0.55420   0.57275   0.1708000000
H          H       0.71164   0.68184   0.64873   0.1687000000
H          H       0.57703   0.72984   0.75103   0.1619000000
O          O       0.49287   0.36918   0.17906  -0.5562000000
C          C       0.49491   0.33501   0.22556   0.1332000000
C          C       0.56609   0.26517   0.18742   0.0157000000
C          C       0.61841   0.24929   0.12065  -0.1561000000
C          C       0.69057   0.18875   0.08598  -0.0833000000
C          C       0.70973   0.14386   0.11829  -0.1285000000
C          C       0.65554   0.15730   0.18410  -0.0778000000
C          C       0.58340   0.21839   0.21882  -0.1952000000
C          C       0.79299   0.08446   0.08037   0.7128000000
O          O       0.84261   0.09940   0.05794  -0.5363000000
O          O       0.80611   0.02748   0.07535  -0.5070000000
C          C       0.41661   0.34286   0.27128  -0.0298000000
C          C       0.38965   0.31987   0.24856  -0.1557000000
C          C       0.31312   0.33509   0.28961  -0.0766000000
C          C       0.26392   0.37393   0.35308  -0.1397000000
C          C       0.29166   0.39444   0.37694  -0.0654000000
C          C       0.36849   0.37833   0.33590  -0.1917000000
C          C       0.17892   0.39744   0.39506   0.7111000000
O          O       0.16338   0.35611   0.39228  -0.4894000000
O          O       0.13086   0.45659   0.43002  -0.5460000000
H          H       0.44154   0.41080   0.19983   0.3169000000
H          H       0.50556   0.35907   0.25105   0.1371000000
H          H       0.60312   0.28536   0.09632   0.1821000000
H          H       0.73281   0.17698   0.03432   0.1637000000
H          H       0.66991   0.12091   0.20825   0.1600000000
H          H       0.54134   0.22964   0.27028   0.1604000000
H          H       0.42841   0.29080   0.19854   0.1733000000
H          H       0.29123   0.31757   0.27259   0.1695000000
H          H       0.25268   0.42387   0.42686   0.1657000000
H          H       0.39022   0.39447   0.35414   0.1602000000
O          O       0.05121   0.79384   0.27815  -0.5594000000
C          C       0.07276   0.74603   0.22957   0.1334000000
C          C       0.03706   0.78538   0.19742   0.0407000000
C          C       0.00921   0.85235   0.20761  -0.1788000000
C          C       0.98690   0.88689   0.17141  -0.0547000000
C          C      -0.00874   0.85457   0.12558  -0.1574000000
C          C       0.01464   0.78882   0.11785  -0.0518000000
C          C       0.03786   0.75413   0.15377  -0.2144000000
C          C      -0.02388   0.89093   0.08254   0.6914000000
O          O      -0.00397   0.93166   0.06919  -0.5235000000
O          O       0.94508   0.88129   0.06128  -0.4926000000
C          C       0.04711   0.70104   0.26055  -0.0536000000
C          C       0.96867   0.72772   0.31307  -0.1374000000
C          C       0.94741   0.68782   0.34841  -0.1002000000
C          C       1.00527   0.62128   0.33060  -0.1005000000
C          C       0.08258   0.59308   0.27535  -0.0966000000
C          C       0.10335   0.63323   0.24021  -0.1648000000
C          C       0.98734   0.58016   0.37429   0.7056000000
O          O       0.95665   0.55332   0.37058  -0.4882000000
O          O       0.00532   0.57784   0.41138  -0.5241000000
H          H       0.05650   0.77395   0.30998   0.3203000000
H          H       0.13838   0.71812   0.19372   0.1386000000
H          H       0.00663   0.87675   0.24322   0.1846000000
H          H       0.96784   0.93845   0.17721   0.1681000000
H          H       0.01548   0.76488   0.08342   0.1644000000
H          H       0.05708   0.70268   0.14732   0.1648000000
H          H       0.92468   0.78012   0.32700   0.1712000000
H          H       0.88672   0.70861   0.39004   0.1641000000
H          H       0.12642   0.54058   0.26077   0.1619000000
H          H       0.16372   0.61174   0.19775   0.1577000000
O          O       0.18039   0.08836   0.16830  -0.5575000000
C          C       0.09582   0.12132   0.21010   0.1356000000
C          C       0.07418   0.11869   0.16675   0.0248000000
C          C       0.13354   0.08671   0.10087  -0.1534000000
C          C       0.11700   0.07283   0.06218  -0.0822000000
C          C       0.04020   0.09219   0.08957  -0.1096000000
C          C       0.97936   0.12824   0.15443  -0.0773000000
C          C       0.99654   0.14128   0.19301  -0.1927000000
C          C       0.02338   0.06976   0.05133   0.6109000000
O          O       0.05978   0.00759   0.02910  -0.4250000000
O          O       0.97381   0.10939   0.04206  -0.4322000000
C          C       0.06005   0.18805   0.24985  -0.0408000000
C          C       0.06975   0.23578   0.22136  -0.1438000000
C          C       0.04910   0.29180   0.25722  -0.0875000000
C          C       1.01921   0.29941   0.32157  -0.1132000000
C          C       1.00462   0.25391   0.35150  -0.0794000000
C          C       0.02458   0.19862   0.31568  -0.1785000000
C          C       1.00803   0.35274   0.35936   0.6936000000
O          O       0.96182   0.41241   0.36732  -0.4793000000
O          O       0.04792   0.33081   0.38048  -0.4974000000
H          H       0.19777   0.09739   0.19062   0.3209000000
H          H       0.08348   0.08948   0.24155   0.1383000000
H          H       0.19360   0.07090   0.08034   0.1855000000
H          H       0.16386   0.04585   0.01140   0.1644000000
H          H       0.91922   0.14503   0.17476   0.1655000000
H          H       0.94957   0.16830   0.24366   0.1634000000
H          H       0.09510   0.22851   0.17063   0.1706000000
H          H       0.05749   0.32869   0.23485   0.1674000000
H          H       0.97973   0.26102   0.40215   0.1657000000
H          H       0.01411   0.16294   0.33888   0.1602000000
Zn         Zn      0.94080   0.50625   0.53881   0.4657000000
Zn         Zn      0.01650   0.52693   0.47086   0.5384000000
Zn         Zn      0.93058   0.49317   0.42007   0.5063000000
Zn         Zn      0.05756   0.37218   0.43487   0.4703000000
O          O       0.99883   0.46443   0.44496  -0.4938000000
